files/ojo_caliente_consultants/Lines.dss
new line.ug4303156 bus1=node_el_rito.1.2.3 bus2=node_ug4303156.1.2.3 switch=n length=858.7318611716549 units=ft geometry=500-mcm-25kv-jacc:500-mcm-25kv-jacc:3 enabled=true phases=3 
new line.ug21000121 bus1=node_ocd21000118.1.2.3 bus2=node_ug21000121.1.2.3 switch=n length=497.30261056272997 units=ft geometry=#4/0-25kvjac:#4/0-25kvjac:3 enabled=true phases=3 
new line.ug21000123 bus1=node_ocd21000120.1.2.3 bus2=node_ug21000123.1.2.3 switch=n length=627.561034331727 units=ft geometry=#4/0-25kvjac:#4/0-25kvjac:3 enabled=true phases=3 
new line.ug21000124 bus1=node_ocd21000122.1.2.3 bus2=node_ug21000124.1.2.3 switch=n length=581.141548898522 units=ft geometry=#4/0-25kvjac:#4/0-25kvjac:3 enabled=true phases=3 
new line.oh4301347 bus1=node_63232-63900-cp571127447.1.2.3 bus2=node_oh4301347.1.2.3 switch=n length=335.133222763684 units=ft geometry=#2-acsr-6/1:#2-acsr-6/1:3 enabled=true phases=3 
new line.oh4301105 bus1=node_oh4301053.3 bus2=node_oh4301105.3 switch=n length=384.43315738893403 units=ft geometry=#4-acsr-7/1:#4-acsr-7/1:1 enabled=true phases=1 
new line.oh4301124 bus1=node_64044-cp571113943-56704.1.2.3 bus2=node_oh4301124.1.2.3 switch=n length=163.834472868175 units=ft geometry=#1/0-acsr-6/1:#2-acsr-6/1:3 enabled=true phases=3 
new line.ug4301286 bus1=node_ocd4300153.1 bus2=node_ug4301286.1 switch=n length=43.6827586125436 units=ft geometry=#1/0-25kv-jac:#1/0-25kv-jac:1 enabled=true phases=1 
new line.ug4307481 bus1=node_ocd4307480.3 bus2=node_ug4307481.3 switch=n length=480.29375365491404 units=ft geometry=#1/0-25kv-jac:#1/0-25kv-jac:1 enabled=true phases=1 
new line.oh4307470 bus1=node_oh4307466.3 bus2=node_oh4307470.3 switch=n length=253.768068125284 units=ft geometry=#4-acsr-7/1:#4-acsr-7/1:1 enabled=true phases=1 
new line.oh4307467 bus1=node_ocd4307468.3 bus2=node_oh4307467.3 switch=n length=1012.20214606572 units=ft geometry=#4-acsr-7/1:#4-acsr-7/1:1 enabled=true phases=1 
new line.ug_3_32_15_3_2 bus1=node_ocd4303060.3 bus2=node_ug_3_32_15_3_2.3 switch=n length=1412.36225992134 units=ft geometry=#1/0-25kv-jac:#1/0-25kv-jac:1 enabled=true phases=1 
new line.ug_3_32_15_1_0001 bus1=node_ug_3_32_15_3_0001.3 bus2=node_ug_3_32_15_1_0001.3 switch=n length=552.2592978316629 units=ft geometry=#1/0-25kv-jac:#1/0-25kv-jac:1 enabled=true phases=1 
new line.ug_3_32_15_3_0004 bus1=node_ug_3_32_15_3_0002.3 bus2=node_ug_3_32_15_3_0004.3 switch=n length=242.986846925512 units=ft geometry=#1/0-25kv-jac:#1/0-25kv-jac:1 enabled=true phases=1 
new line.oh4307435 bus1=node_oh4301470.3 bus2=node_oh4307435.3 switch=n length=545.690653209385 units=ft geometry=#4-acsr-7/1:#4-acsr-7/1:1 enabled=true phases=1 
new line.oh4301473 bus1=node_oh4301470.3 bus2=node_oh4301473.3 switch=n length=115.532243551467 units=ft geometry=#4-acsr-7/1:#4-acsr-7/1:1 enabled=true phases=1 
new line.oh4307429 bus1=node_ocd4300203.3 bus2=node_oh4307429.3 switch=n length=538.498860258712 units=ft geometry=#4-acsr-7/1:#4-acsr-7/1:1 enabled=true phases=1 
new line.oh4303149 bus1=node_oh4303146.3 bus2=node_oh4303149.3 switch=n length=371.12414661391 units=ft geometry=#4-acsr-7/1:#4-acsr-7/1:1 enabled=true phases=1 
new line.ug4303147 bus1=node_ocd4303056.3 bus2=node_ug4303147.3 switch=n length=469.535947292623 units=ft geometry=#1/0-25kv-jac:#1/0-25kv-jac:1 enabled=true phases=1 
new line.ug4307353 bus1=node_ocd4307352.3 bus2=node_ug4307353.3 switch=n length=233.85855318975499 units=ft geometry=#1/0-25kv-jac:#1/0-25kv-jac:1 enabled=true phases=1 
new line.ug4301579 bus1=node_ocd4300174.2 bus2=node_ug4301579.2 switch=n length=89.2883710234727 units=ft geometry=none:none:1 enabled=true phases=1 
new line.oh4303903 bus1=node_oh4301581.2 bus2=node_oh4303903.2 switch=n length=677.472985734377 units=ft geometry=#4-acsr-7/1:#4-acsr-7/1:1 enabled=true phases=1 
new line.ug4303904 bus1=node_oh4301581.2 bus2=node_ug4303904.2 switch=n length=303.89547956485 units=ft geometry=#1/0-25kv-jac:#1/0-25kv-jac:1 enabled=true phases=1 
new line.oh4301248 bus1=node_oh4301247.1.2.3 bus2=node_oh4301248.1.2.3 switch=n length=107.43825482572599 units=ft geometry=#1/0-acsr-6/1:#2-acsr-6/1:3 enabled=true phases=3 
new line.ug4301249 bus1=node_ocd4300150.3 bus2=node_ug4301249.3 switch=n length=758.86651085683 units=ft geometry=#1/0-25kv-jac:#1/0-25kv-jac:1 enabled=true phases=1 
new line.ug4301169 bus1=node_ocd4300055.3 bus2=node_ug4301169.3 switch=n length=181.012036340088 units=ft geometry=#1/0-25kv-jac:#1/0-25kv-jac:1 enabled=true phases=1 
new line.oh4301886 bus1=node_oh4301884.1.2.3 bus2=node_oh4301886.1.2.3 switch=n length=213.03320914822498 units=ft geometry=#2-acsr-6/1:#2-acsr-6/1:3 enabled=true phases=3 
new line.ug4301885 bus1=node_ocd4302602.1.2.3 bus2=node_ug4301885.1.2.3 switch=n length=167.280359277458 units=ft geometry=#1/0-25kv-jac:#1/0-25kv-jac:3 enabled=true phases=3 
new line.oh4301926 bus1=node_oh4301915.1.2.3 bus2=node_oh4301926.1.2.3 switch=n length=411.76203710394697 units=ft geometry=#2-acsr-6/1:#2-acsr-6/1:3 enabled=true phases=3 
new line.ug4301916 bus1=node_ocd4308022.1.2.3 bus2=node_ug4301916.1.2.3 switch=n length=138.659730635872 units=ft geometry=#1/0-25kv-jac:#1/0-25kv-jac:3 enabled=true phases=3 
new line.ug4301973 bus1=node_ocd4300047.1.2.3 bus2=node_ug4301973.1.2.3 switch=n length=221.470150237121 units=ft geometry=#1/0-25kv-jac:#1/0-25kv-jac:3 enabled=true phases=3 
new line.oh4300203 bus1=node_oh4302612.2 bus2=node_oh4300203.2 switch=n length=471.105250766632 units=ft geometry=#4-acsr-7/1:#4-acsr-7/1:1 enabled=true phases=1 
new line.oh4301574 bus1=node_ocd4303894.3 bus2=node_oh4301574.3 switch=n length=448.559509652889 units=ft geometry=#4-acsr-7/1:#4-acsr-7/1:1 enabled=true phases=1 
new line.ug4303896 bus1=node_ocd4303895.2 bus2=node_ug4303896.2 switch=n length=237.263371172198 units=ft geometry=#1/0-25kv-jac:#1/0-25kv-jac:1 enabled=true phases=1 
new line.oh4302611 bus1=node_oh4302609.3 bus2=node_oh4302611.3 switch=n length=1 units=ft geometry=#4-acsr-7/1:#4-acsr-7/1:1 enabled=true phases=1 
new line.oh4302610 bus1=node_oh4302609.1.2.3 bus2=node_oh4302610.1.2.3 switch=n length=85.7131040156077 units=ft geometry=#2-acsr-6/1:#2-acsr-6/1:3 enabled=true phases=3 
new line.oh4301961 bus1=node_oh4302609.1.2.3 bus2=node_oh4301961.1.2.3 switch=n length=1 units=ft geometry=#4-acsr-7/1:#4-acsr-7/1:3 enabled=true phases=3 
new line.ug4301966 bus1=node_ocd4302743.1.2.3 bus2=node_ug4301966.1.2.3 switch=n length=143.83326040930902 units=ft geometry=#1/0-25kv-jac:#1/0-25kv-jac:3 enabled=true phases=3 
new line.oh4301934 bus1=node_ocd4302623.3 bus2=node_oh4301934.3 switch=n length=251.01994761376702 units=ft geometry=#4-acsr-7/1:#4-acsr-7/1:1 enabled=true phases=1 
new line.ug4301555 bus1=node_ocd4302603.1.2.3 bus2=node_ug4301555.1.2.3 switch=n length=147.752821969827 units=ft geometry=#1/0-25kv-jac:#1/0-25kv-jac:3 enabled=true phases=3 
new line.oh4301036 bus1=node_oh4301033.3 bus2=node_oh4301036.3 switch=n length=289.21915047237997 units=ft geometry=#4-acsr-6/1:#4-acsr-6/1:1 enabled=true phases=1 
new line.ug4301105 bus1=node_ocd4302594.3 bus2=node_ug4301105.3 switch=n length=169.055996639983 units=ft geometry=#1/0-25kv-jac:#1/0-25kv-jac:1 enabled=true phases=1 
new line.oh4301121 bus1=node_oh4301111.3 bus2=node_oh4301121.3 switch=n length=142.39994733139602 units=ft geometry=#4-acsr-6/1:#4-acsr-6/1:1 enabled=true phases=1 
new line.ug4301119 bus1=node_ocd4302595.3 bus2=node_ug4301119.3 switch=n length=228.895665533423 units=ft geometry=none:none:1 enabled=true phases=1 
new line.ug4301124 bus1=node_ocd4302596.3 bus2=node_ug4301124.3 switch=n length=127.41859558175301 units=ft geometry=#1/0-25kv-jac:#1/0-25kv-jac:1 enabled=true phases=1 
new line.ug4301154 bus1=node_ocd4307828.3 bus2=node_ug4301154.3 switch=n length=349.46546853730905 units=ft geometry=#1/0-25kv-jac:#1/0-25kv-jac:1 enabled=true phases=1 
new line.oh4301514 bus1=node_oh4301505.1 bus2=node_oh4301514.1 switch=n length=294.572483609753 units=ft geometry=#4-acsr-7/1:#4-acsr-7/1:1 enabled=true phases=1 
new line.ug4301524 bus1=node_ocd4303004.1 bus2=node_ug4301524.1 switch=n length=1111.25168242822 units=ft geometry=#1/0-25kv-jac:#1/0-25kv-jac:1 enabled=true phases=1 
new line.oh3610020 bus1=node_carson.1.2.3 bus2=node_oh3610020.1.2.3 switch=n length=354.896150925492 units=ft geometry=500-mcm-25kv-jacc:500-mcm-25kv-jacc:3 enabled=true phases=3 
new line.oh3540068 bus1=node_53350-104069-153355.1.2.3 bus2=node_oh3540068.1.2.3 switch=n length=235.623086305145 units=ft geometry=4a-cwc:4a-cwc:3 enabled=true phases=3 
new line.oh3570075 bus1=node_71332.3 bus2=node_oh3570075.3 switch=n length=247.058586169443 units=ft geometry=#4/0-acsr-6/1:#4/0-acsr-6/1:1 enabled=true phases=1 
new line.oh3570056 bus1=node_oh3570055.1.2.3 bus2=node_oh3570056.1.2.3 switch=n length=466.384417942854 units=ft geometry=4a-cwc:4a-cwc:3 enabled=true phases=3 
new line.ug3570004 bus1=node_3570005.2 bus2=node_ug3570004.2 switch=n length=1325.43000015083 units=ft geometry=#1/0-25kv-jac:#1/0-25kv-jac:1 enabled=true phases=1 
new line.oh3570044 bus1=node_oh3570008.1.2.3 bus2=node_oh3570044.1.2.3 switch=n length=534.811848784271 units=ft geometry=4a-cwc:4a-cwc:3 enabled=true phases=3 
new line.oh3570016 bus1=node_57205.3 bus2=node_oh3570016.3 switch=n length=87.38160733255708 units=ft geometry=#4/0-acsr-6/1:#4/0-acsr-6/1:1 enabled=true phases=1 
new line.oh3570093 bus1=node_oh3570092.3 bus2=node_oh3570093.3 switch=n length=503.32304229000397 units=ft geometry=#4/0-acsr-6/1:#4/0-acsr-6/1:1 enabled=true phases=1 
new line.oh3670002 bus1=node_3670001.3 bus2=node_oh3670002.3 switch=n length=416.970491162116 units=ft geometry=#4/0-acsr-6/1:#4/0-acsr-6/1:1 enabled=true phases=1 
new line.oh3670010 bus1=node_3670002.3 bus2=node_oh3670010.3 switch=n length=261.81660699816 units=ft geometry=#4/0-acsr-6/1:#4/0-acsr-6/1:1 enabled=true phases=1 
new line.oh3670037 bus1=node_oh3670035.3 bus2=node_oh3670037.3 switch=n length=582.290024815617 units=ft geometry=#4/0-acsr-6/1:#4/0-acsr-6/1:1 enabled=true phases=1 
new line.oh3670036 bus1=node_3670007.3 bus2=node_oh3670036.3 switch=n length=487.560378312173 units=ft geometry=#4/0-acsr-6/1:#4/0-acsr-6/1:1 enabled=true phases=1 
new line.ug3770002 bus1=node_3770004.3 bus2=node_ug3770002.3 switch=n length=271.616303082323 units=ft geometry=#1/0-25kv-jac:#1/0-25kv-jac:1 enabled=true phases=1 
new line.ug3770004 bus1=node_3770005.3 bus2=node_ug3770004.3 switch=n length=658.090142837412 units=ft geometry=#1/0-25kv-jac:#1/0-25kv-jac:1 enabled=true phases=1 
new line.oh3770039 bus1=node_oh3770035.3 bus2=node_oh3770039.3 switch=n length=448.35940080389395 units=ft geometry=#4/0-acsr-6/1:#4/0-acsr-6/1:1 enabled=true phases=1 
new line.oh3770040 bus1=node_oh3770035.3 bus2=node_oh3770040.3 switch=n length=564.2364547071289 units=ft geometry=#4/0-acsr-6/1:#4/0-acsr-6/1:1 enabled=true phases=1 
new line.ug3770001 bus1=node_3770003.3 bus2=node_ug3770001.3 switch=n length=321.818949766973 units=ft geometry=#1/0-25kv-jac:#1/0-25kv-jac:1 enabled=true phases=1 
new line.oh3670039 bus1=node_oh3670038.3 bus2=node_oh3670039.3 switch=n length=610.410055372765 units=ft geometry=#4/0-acsr-6/1:#4/0-acsr-6/1:1 enabled=true phases=1 
new line.ug3670003 bus1=node_3670008.3 bus2=node_ug3670003.3 switch=n length=1695.73251230858 units=ft geometry=#1/0-25kv-jac:#1/0-25kv-jac:1 enabled=true phases=1 
new line.oh3670034 bus1=node_oh3670033.3 bus2=node_oh3670034.3 switch=n length=199.532018733854 units=ft geometry=#4/0-acsr-6/1:#4/0-acsr-6/1:1 enabled=true phases=1 
new line.ug3670001 bus1=node_3670006.3 bus2=node_ug3670001.3 switch=n length=592.200146234495 units=ft geometry=#1/0-25kv-jac:#1/0-25kv-jac:1 enabled=true phases=1 
new line.oh3670051 bus1=node_oh3670021.3 bus2=node_oh3670051.3 switch=n length=476.874667077061 units=ft geometry=#4/0-acsr-6/1:#4/0-acsr-6/1:1 enabled=true phases=1 
new line.oh3670023 bus1=node_3670005.3 bus2=node_oh3670023.3 switch=n length=272.889582431988 units=ft geometry=#4/0-acsr-6/1:#4/0-acsr-6/1:1 enabled=true phases=1 
new line.ug3660001 bus1=node_3660001.3 bus2=node_ug3660001.3 switch=n length=760.406494251646 units=ft geometry=#1/0-25kv-jac:#1/0-25kv-jac:1 enabled=true phases=1 
new line.oh3670022 bus1=node_3670004.3 bus2=node_oh3670022.3 switch=n length=416.331853813806 units=ft geometry=#4/0-acsr-6/1:#4/0-acsr-6/1:1 enabled=true phases=1 
new line.oh3670016 bus1=node_oh3670014.3 bus2=node_oh3670016.3 switch=n length=577.400261950202 units=ft geometry=#4/0-acsr-6/1:#4/0-acsr-6/1:1 enabled=true phases=1 
new line.oh3570042 bus1=node_oh3570040.3 bus2=node_oh3570042.3 switch=n length=192.06564216413298 units=ft geometry=#4/0-acsr-6/1:#4/0-acsr-6/1:1 enabled=true phases=1 
new line.oh3570095 bus1=node_3570008.3 bus2=node_oh3570095.3 switch=n length=200.008116335284 units=ft geometry=#4/0-acsr-6/1:#4/0-acsr-6/1:1 enabled=true phases=1 
new line.ug3570003 bus1=node_3570007.3 bus2=node_ug3570003.3 switch=n length=328.18646711899396 units=ft geometry=#1/0-25kv-jac:#1/0-25kv-jac:1 enabled=true phases=1 
new line.oh3570035 bus1=node_oh3570030.3 bus2=node_oh3570035.3 switch=n length=636.8832671692311 units=ft geometry=#4/0-acsr-6/1:#4/0-acsr-6/1:1 enabled=true phases=1 
new line.oh3570032 bus1=node_3570006.3 bus2=node_oh3570032.3 switch=n length=521.007378834492 units=ft geometry=#4/0-acsr-6/1:#4/0-acsr-6/1:1 enabled=true phases=1 
new line.oh3570031 bus1=node_3570006.3 bus2=node_oh3570031.3 switch=n length=432.675113682508 units=ft geometry=#4/0-acsr-6/1:#4/0-acsr-6/1:1 enabled=true phases=1 
new line.oh3560001 bus1=node_oh3560022.3 bus2=node_oh3560001.3 switch=n length=325.85925136481 units=ft geometry=#4/0-acsr-6/1:#4/0-acsr-6/1:1 enabled=true phases=1 
new line.ug3560001 bus1=node_3560001.3 bus2=node_ug3560001.3 switch=n length=1137.37898151843 units=ft geometry=#1/0-25kv-jac:#1/0-25kv-jac:1 enabled=true phases=1 
new line.ug3560003 bus1=node_3560002.3 bus2=node_ug3560003.3 switch=n length=269.631505948461 units=ft geometry=#1/0-25kv-jac:#1/0-25kv-jac:1 enabled=true phases=1 
new line.oh3570008 bus1=node_oh3570006.1.2.3 bus2=node_oh3570008.1.2.3 switch=n length=189.01467932413001 units=ft geometry=4a-cwc:4a-cwc:3 enabled=true phases=3 
new line.oh3570007 bus1=node_3570001.1 bus2=node_oh3570007.1 switch=n length=152.63015855317 units=ft geometry=#4/0-acsr-6/1:#4/0-acsr-6/1:1 enabled=true phases=1 
new line.oh3570014 bus1=node_oh3570013.1 bus2=node_oh3570014.1 switch=n length=593.232077521313 units=ft geometry=#4/0-acsr-6/1:#4/0-acsr-6/1:1 enabled=true phases=1 
new line.ug3570002 bus1=node_3570003.1 bus2=node_ug3570002.1 switch=n length=290.894137617163 units=ft geometry=#1/0-25kv-jac:#1/0-25kv-jac:1 enabled=true phases=1 
new line.oh3570011 bus1=node_oh3570010.1 bus2=node_oh3570011.1 switch=n length=205.186395260438 units=ft geometry=#4/0-acsr-6/1:#4/0-acsr-6/1:1 enabled=true phases=1 
new line.ug3570001 bus1=node_3570002.1 bus2=node_ug3570001.1 switch=n length=281.71365621841704 units=ft geometry=#1/0-25kv-jac:#1/0-25kv-jac:1 enabled=true phases=1 
new line.oh3540063 bus1=node_oh3540036.1.2.3 bus2=node_oh3540063.1.2.3 switch=n length=519.629792063566 units=ft geometry=4a-cwc:4a-cwc:3 enabled=true phases=3 
new line.oh3540037 bus1=node_3540003.3 bus2=node_oh3540037.3 switch=n length=478.451232415435 units=ft geometry=#4/0-acsr-6/1:#4/0-acsr-6/1:1 enabled=true phases=1 
new line.oh3540001 bus1=node_oh3540030.1.2.3 bus2=node_oh3540001.1.2.3 switch=n length=145.936764730365 units=ft geometry=#1/0-acsr-6/1:#2-acsr-6/1:3 enabled=true phases=3 
new line.ug3540001 bus1=node_3540002.1 bus2=node_ug3540001.1 switch=n length=266.90302658464805 units=ft geometry=#1/0-25kv-jac:#1/0-25kv-jac:1 enabled=true phases=1 
new line.oh3540027 bus1=node_oh3540026.1.2.3 bus2=node_oh3540027.1.2.3 switch=n length=487.16094763419295 units=ft geometry=#1/0-acsr-6/1:#2-acsr-6/1:3 enabled=true phases=3 
new line.oh3530009 bus1=node_oh3530008.3 bus2=node_oh3530009.3 switch=n length=515.897942038901 units=ft geometry=#4/0-acsr-6/1:#4/0-acsr-6/1:1 enabled=true phases=1 
new line.ug3630001 bus1=node_3530002.3 bus2=node_ug3630001.3 switch=n length=1037.18455161055 units=ft geometry=#1/0-25kv-jac:#1/0-25kv-jac:1 enabled=true phases=1 
new line.ug3620001 bus1=node_3620001.3 bus2=node_ug3620001.3 switch=n length=2392.09868134643 units=ft geometry=#1/0-25kv-jac:#1/0-25kv-jac:1 enabled=true phases=1 
new line.oh3520002 bus1=node_oh3520049.3 bus2=node_oh3520002.3 switch=n length=296.39054809474203 units=ft geometry=#4/0-acsr-6/1:#4/0-acsr-6/1:1 enabled=true phases=1 
new line.ug3620002 bus1=node_3520001.3 bus2=node_ug3620002.3 switch=n length=1084.9002149965402 units=ft geometry=#1/0-25kv-jac:#1/0-25kv-jac:1 enabled=true phases=1 
new line.oh3530003 bus1=node_oh3530002.3 bus2=node_oh3530003.3 switch=n length=400.400617858395 units=ft geometry=#4/0-acsr-6/1:#4/0-acsr-6/1:1 enabled=true phases=1 
new line.ug3530001 bus1=node_3530001.3 bus2=node_ug3530001.3 switch=n length=656.899484700689 units=ft geometry=#1/0-25kv-jac:#1/0-25kv-jac:1 enabled=true phases=1 
new line.ug_3_45_13_2_0001 bus1=node_fuse_prefix_3_45_14_1_000.1.2.3 bus2=node_ug_3_45_13_2_0001.1.2.3 switch=n length=131.020902067882 units=ft geometry=#1/0-25kv-jac:#1/0-25kv-jac:3 enabled=true phases=3 
new line.ug_3_45_13_2_0002 bus1=node_fuse_prefix_3_45_14_1_000.1.2.3 bus2=node_ug_3_45_13_2_0002.1.2.3 switch=n length=47.709607832228095 units=ft geometry=#1/0-25kv-jac:#1/0-25kv-jac:3 enabled=true phases=3 
new line.oh_3_45_14_1_0004 bus1=node_oh_3_45_14_1_0001.1.2.3 bus2=node_oh_3_45_14_1_0004.1.2.3 switch=n length=187.648431271899 units=ft geometry=#1/0-acsr-6/1:#2-acsr-6/1:3 enabled=true phases=3 
new line.ug_3_45_13_4_0001 bus1=node_fuse_prefix_3_45_14_3_000.1.2.3 bus2=node_ug_3_45_13_4_0001.1.2.3 switch=n length=117.10664379852 units=ft geometry=#1/0-25kv-jac:#1/0-25kv-jac:3 enabled=true phases=3 
new line.oh4300184 bus1=node_bay_ojo_caliente.1.2.3 bus2=node_oh4300184.1.2.3 switch=n length=470.127779717139 units=ft geometry=500-mcm-25kv-jacc:500-mcm-25kv-jacc:3 enabled=true phases=3 
new line.oh4302736 bus1=node_108723-571106722-57108724.1.2.3 bus2=node_oh4302736.1.2.3 switch=n length=412.00342923312894 units=ft geometry=#1/0-acsr-6/1:#2-acsr-6/1:3 enabled=true phases=3 
new line.ug4300512 bus1=node_ocd4302585.3 bus2=node_ug4300512.3 switch=n length=416.30319431864194 units=ft geometry=#1/0-25kv-jac:#1/0-25kv-jac:1 enabled=true phases=1 
new line.ug4303117 bus1=node_ocd4302981.2 bus2=node_ug4303117.2 switch=n length=130.23375445725299 units=ft geometry=#1/0-25kv-jac:#1/0-25kv-jac:1 enabled=true phases=1 
new line.oh4303796 bus1=node_oh4303789.3 bus2=node_oh4303796.3 switch=n length=172.283205217579 units=ft geometry=#1/0-acsr-6/1:#2-acsr-6/1:1 enabled=true phases=1 
new line.oh4303795 bus1=node_oh4303789.1.2.3 bus2=node_oh4303795.1.2.3 switch=n length=194.600762119391 units=ft geometry=#1/0-acsr-6/1:#2-acsr-6/1:3 enabled=true phases=3 
new line.ug4303793 bus1=node_ocd4303792.3 bus2=node_ug4303793.3 switch=n length=378.25955638950796 units=ft geometry=#1/0-25kv-jac:#1/0-25kv-jac:1 enabled=true phases=1 
new line.oh4300599 bus1=node_xfmr4302741.3 bus2=node_oh4300599.3 switch=n length=425.034385667945 units=ft geometry=#1/0-acsr-6/1:#2-acsr-6/1:1 enabled=true phases=1 
new line.oh4303887 bus1=node_oh4303886.3 bus2=node_oh4303887.3 switch=n length=119.501474886457 units=ft geometry=#1/0-acsr-6/1:#2-acsr-6/1:1 enabled=true phases=1 
new line.ug4303858 bus1=node_ocd4303857.3 bus2=node_ug4303858.3 switch=n length=298.554518592647 units=ft geometry=#1/0-25kv-jac:#1/0-25kv-jac:1 enabled=true phases=1 
new line.oh4300593 bus1=node_oh4300591.1.2.3 bus2=node_oh4300593.1.2.3 switch=n length=239.0435194686 units=ft geometry=#1/0-acsr-6/1:#2-acsr-6/1:3 enabled=true phases=3 
new line.ug4300595 bus1=node_ocd4302590.3 bus2=node_ug4300595.3 switch=n length=606.917200283551 units=ft geometry=#1/0-25kv-jac:#1/0-25kv-jac:1 enabled=true phases=1 
new line.oh4300322 bus1=node_oh4300316.1.2.3 bus2=node_oh4300322.1.2.3 switch=n length=233.411685225858 units=ft geometry=#1/0-acsr-6/1:#2-acsr-6/1:3 enabled=true phases=3 
new line.ug4302735 bus1=node_ocd4301070.1.2.3 bus2=node_ug4302735.1.2.3 switch=n length=7.95950761577467 units=ft geometry=none:none:3 enabled=true phases=3 
new line.ug4300321 bus1=node_ocd4307998.3 bus2=node_ug4300321.3 switch=n length=184.72894223701303 units=ft geometry=#1/0-25kv-jac:#1/0-25kv-jac:1 enabled=true phases=1 
new line.ug4300297 bus1=node_ocd4302569.1.2.3 bus2=node_ug4300297.1.2.3 switch=n length=14.6102611704436 units=ft geometry=#1/0-25kv-jac:#1/0-25kv-jac:3 enabled=true phases=3 
new line.ug4300154 bus1=node_ocd4302569.3 bus2=node_ug4300154.3 switch=n length=5.3484203277398095 units=ft geometry=none:none:1 enabled=true phases=1 
new line.ug_3_45_23_1_0001 bus1=node_la_madera.1.2.3 bus2=node_ug_3_45_23_1_0001.1.2.3 switch=n length=858.7316613345951 units=ft geometry=500-mcm-25kv-jacc:500-mcm-25kv-jacc:3 enabled=true phases=3 
new line.ug21000110 bus1=node_ocd21000101.1.2.3 bus2=node_ug21000110.1.2.3 switch=n length=502.407282834958 units=ft geometry=#4/0-25kv-jac:#4/0-25kv-jac:3 enabled=true phases=3 
new line.ug_3_34_70_4_0001 bus1=node_ocd21000109.1 bus2=node_ug_3_34_70_4_0001.1 switch=n length=188.961285960873 units=ft geometry=#1/0-25kv-jac:#1/0-25kv-jac:1 enabled=true phases=1 
new line.ug21000112 bus1=node_ocd21000109.1.2.3 bus2=node_ug21000112.1.2.3 switch=n length=622.990069574508 units=ft geometry=#4/0-25kv-jac:#4/0-25kv-jac:3 enabled=true phases=3 
new line.ug_3_34_70_2_0001 bus1=node_ocd21000111.3 bus2=node_ug_3_34_70_2_0001.3 switch=n length=30.668430486627997 units=ft geometry=#4/0-25kvjac:#4/0-25kvjac:1 enabled=true phases=1 
new line.ug21000113 bus1=node_ocd21000111.1.2.3 bus2=node_ug21000113.1.2.3 switch=n length=665.941402247201 units=ft geometry=#4/0-25kv-jac:#4/0-25kv-jac:3 enabled=true phases=3 
new line.ug21000115 bus1=node_ocd21000071.1.2.3 bus2=node_ug21000115.1.2.3 switch=n length=1.34498898917005 units=ft geometry=#4/0-25kvjac:#4/0-25kvjac:3 enabled=true phases=3 
new line.oh_3_34_60_2_0001 bus1=node_164050a1-1840504a4-10474.1.2.3 bus2=node_oh_3_34_60_2_0001.1.2.3 switch=n length=500.502034023998 units=ft geometry=#2-acsr-6/1:#2-acsr-6/1:3 enabled=true phases=3 
new line.oh4302806 bus1=node_oh4302805.1.2.3 bus2=node_oh4302806.1.2.3 switch=n length=461.37168931362396 units=ft geometry=#2-acsr-6/1:#2-acsr-6/1:3 enabled=true phases=3 
new line.ug4303064 bus1=node_ocd4303063.3 bus2=node_ug4303064.3 switch=n length=232.78926113538103 units=ft geometry=#1/0-25kv-jac:#1/0-25kv-jac:1 enabled=true phases=1 
new line.oh4300644 bus1=node_ocd4300666.3 bus2=node_oh4300644.3 switch=n length=58.4510906656054 units=ft geometry=#4-acsr-6/1:#4-acsr-6/1:1 enabled=true phases=1 
new line.oh3410009 bus1=node_67383.3 bus2=node_oh3410009.3 switch=n length=381.850831739299 units=ft geometry=#4-acsr-6/1:#4-acsr-6/1:1 enabled=true phases=1 
new line.oh3110032 bus1=node_oh3110016.3 bus2=node_oh3110032.3 switch=n length=190.09390863455502 units=ft geometry=#4-acsr-6/1:#4-acsr-6/1:1 enabled=true phases=1 
new line.oh3110043 bus1=node_cp57119947.3 bus2=node_oh3110043.3 switch=n length=370.925398968654 units=ft geometry=#4-acsr-6/1:#4-acsr-6/1:1 enabled=true phases=1 
new line.oh310004 bus1=node_07537a-4.3 bus2=node_oh310004.3 switch=n length=381.245875518702 units=ft geometry=#4-acsr-6/1:#4-acsr-6/1:1 enabled=true phases=1 
new line.oh3210001 bus1=node_oh3210022.3 bus2=node_oh3210001.3 switch=n length=246.914229642659 units=ft geometry=#4-acsr-6/1:#4-acsr-6/1:1 enabled=true phases=1 
new line.oh3210034 bus1=node_104714.3 bus2=node_oh3210034.3 switch=n length=498.164710311766 units=ft geometry=#4-acsr-6/1:#4-acsr-6/1:1 enabled=true phases=1 
new line.oh3320055 bus1=node_oh3320054.3 bus2=node_oh3320055.3 switch=n length=268.057575904993 units=ft geometry=#4-acsr-6/1:#4-acsr-6/1:1 enabled=true phases=1 
new line.ug3320001 bus1=node_3320001.3 bus2=node_ug3320001.3 switch=n length=414.61028556949896 units=ft geometry=#1/0-25kv-jac:#1/0-25kv-jac:1 enabled=true phases=1 
new line.ug3310001 bus1=node_3310001.3 bus2=node_ug3310001.3 switch=n length=660.086044470301 units=ft geometry=#1/0-25kv-jac:#1/0-25kv-jac:1 enabled=true phases=1 
new line.ug3320002 bus1=node_3320002.3 bus2=node_ug3320002.3 switch=n length=279.25868187025503 units=ft geometry=#1/0-25kv-jac:#1/0-25kv-jac:1 enabled=true phases=1 
new line.oh4300775 bus1=node_oh4300769.1 bus2=node_oh4300775.1 switch=n length=449.71601875475096 units=ft geometry=#4/0-acsr-6/1:#4/0-acsr-6/1:1 enabled=true phases=1 
new line.oh4300770 bus1=node_oh4300769.1 bus2=node_oh4300770.1 switch=n length=225.702512391888 units=ft geometry=none:none:1 enabled=true phases=1 
new line.oh4300776 bus1=node_069868-2.1 bus2=node_oh4300776.1 switch=n length=503.66061122555396 units=ft geometry=#4-acsr-6/1:#4-acsr-6/1:1 enabled=true phases=1 
new line.oh4300834 bus1=node_ocd4300272.1 bus2=node_oh4300834.1 switch=n length=625.899709857665 units=ft geometry=#4-acsr-6/1:#4-acsr-6/1:1 enabled=true phases=1 
new line.oh4300849 bus1=node_oh4300848.1 bus2=node_oh4300849.1 switch=n length=479.164379414738 units=ft geometry=#4-acsr-6/1:#4-acsr-6/1:1 enabled=true phases=1 
new line.oh4300908 bus1=node_oh4300854.1 bus2=node_oh4300908.1 switch=n length=258.786524571697 units=ft geometry=#4/0-acsr-6/1:#4/0-acsr-6/1:1 enabled=true phases=1 
new line.oh4300857 bus1=node_oh4300854.1 bus2=node_oh4300857.1 switch=n length=236.806917339657 units=ft geometry=#4-acsr-6/1:#4-acsr-6/1:1 enabled=true phases=1 
new line.oh4300856 bus1=node_oh4300854.1 bus2=node_oh4300856.1 switch=n length=115.259361875856 units=ft geometry=#4/0-acsr-6/1:#4/0-acsr-6/1:1 enabled=true phases=1 
new line.ug4303077 bus1=node_ocd4308020.1 bus2=node_ug4303077.1 switch=n length=298.80502840464 units=ft geometry=#1/0-25kv-jac:#1/0-25kv-jac:1 enabled=true phases=1 
new line.oh4300623 bus1=node_oh4302807.1.2.3 bus2=node_oh4300623.1.2.3 switch=n length=488.20995493721705 units=ft geometry=#2-acsr-6/1:#2-acsr-6/1:3 enabled=true phases=3 
new line.oh4302808 bus1=node_oh4302807.3 bus2=node_oh4302808.3 switch=n length=160.156474989575 units=ft geometry=#1/0-acsr-6/1:#2-acsr-6/1:1 enabled=true phases=1 
new line.ug4302810 bus1=node_ocd4302745.1 bus2=node_ug4302810.1 switch=n length=236.678287977639 units=ft geometry=#1/0-25kv-jac:#1/0-25kv-jac:1 enabled=true phases=1 
new line.oh4303157 bus1=node_ug4303156.1.2.3 bus2=node_oh4303157.1.2.3 switch=n length=82.94634986626241 units=ft geometry=#1/0-acsr-6/1:#2-acsr-6/1:3 enabled=true phases=3 
new line.oh4302332 bus1=node_oh4303157.1.2.3 bus2=node_oh4302332.1.2.3 switch=n length=232.99954613677798 units=ft geometry=#1/0-acsr-6/1:#2-acsr-6/1:3 enabled=true phases=3 
new line.oh4302334 bus1=node_oh4302332.1.2.3 bus2=node_oh4302334.1.2.3 switch=n length=252.341190652713 units=ft geometry=#1/0-acsr-6/1:#2-acsr-6/1:3 enabled=true phases=3 
new line.oh4302335 bus1=node_oh4302334.1.2.3 bus2=node_oh4302335.1.2.3 switch=n length=241.554250635212 units=ft geometry=#1/0-acsr-6/1:#2-acsr-6/1:3 enabled=true phases=3 
new line.oh4300606 bus1=node_oh4302335.1.2.3 bus2=node_oh4300606.1.2.3 switch=n length=424.085604683862 units=ft geometry=#1/0-acsr-6/1:#2-acsr-6/1:3 enabled=true phases=3 
new line.oh4302339 bus1=node_oh4300606.1.2.3 bus2=node_oh4302339.1.2.3 switch=n length=349.532151596828 units=ft geometry=#1/0-acsr-6/1:#2-acsr-6/1:3 enabled=true phases=3 
new line.oh4302345 bus1=node_oh4302339.1.2.3 bus2=node_oh4302345.1.2.3 switch=n length=368.716990251434 units=ft geometry=#1/0-acsr-6/1:#2-acsr-6/1:3 enabled=true phases=3 
new line.oh4302347 bus1=node_oh4302345.1.2.3 bus2=node_oh4302347.1.2.3 switch=n length=440.288650773468 units=ft geometry=#1/0-acsr-6/1:#2-acsr-6/1:3 enabled=true phases=3 
new line.oh4302356 bus1=node_oh4302347.1.2.3 bus2=node_oh4302356.1.2.3 switch=n length=219.705299435599 units=ft geometry=#1/0-acsr-6/1:#2-acsr-6/1:3 enabled=true phases=3 
new line.oh4302362 bus1=node_oh4302356.1.2.3 bus2=node_oh4302362.1.2.3 switch=n length=241.962455145335 units=ft geometry=#1/0-acsr-6/1:#2-acsr-6/1:3 enabled=true phases=3 
new line.oh4302358 bus1=node_oh4302356.1.2.3 bus2=node_oh4302358.1.2.3 switch=n length=228.63003695916402 units=ft geometry=#1/0-acsr-6/1:#2-acsr-6/1:3 enabled=true phases=3 
new line.oh4302367 bus1=node_oh4302362.1.2.3 bus2=node_oh4302367.1.2.3 switch=n length=409.606379466977 units=ft geometry=#1/0-acsr-6/1:#2-acsr-6/1:3 enabled=true phases=3 
new line.oh4302363 bus1=node_oh4302362.3 bus2=node_oh4302363.3 switch=n length=387.80485053703103 units=ft geometry=#1/0-acsr-6/1:#2-acsr-6/1:1 enabled=true phases=1 
new line.oh4302368 bus1=node_oh4302367.1.2.3 bus2=node_oh4302368.1.2.3 switch=n length=337.134777203275 units=ft geometry=#1/0-acsr-6/1:#2-acsr-6/1:3 enabled=true phases=3 
new line.oh4300607 bus1=node_oh4302368.1.2.3 bus2=node_oh4300607.1.2.3 switch=n length=280.026753900427 units=ft geometry=#1/0-acsr-6/1:#2-acsr-6/1:3 enabled=true phases=3 
new line.oh4300608 bus1=node_oh4300607.1.2.3 bus2=node_oh4300608.1.2.3 switch=n length=135.01365856826 units=ft geometry=#1/0-acsr-6/1:#2-acsr-6/1:3 enabled=true phases=3 
new line.oh4302373 bus1=node_oh4300607.3 bus2=node_oh4302373.3 switch=n length=138.669802047881 units=ft geometry=#1/0-acsr-6/1:#2-acsr-6/1:1 enabled=true phases=1 
new line.oh4302382 bus1=node_oh4300608.3 bus2=node_oh4302382.3 switch=n length=287.206477991069 units=ft geometry=#1/0-acsr-6/1:#2-acsr-6/1:1 enabled=true phases=1 
new line.oh4302372 bus1=node_oh4300608.1.2.3 bus2=node_oh4302372.1.2.3 switch=n length=345.527602515423 units=ft geometry=#1/0-acsr-6/1:#2-acsr-6/1:3 enabled=true phases=3 
new line.oh4302383 bus1=node_oh4302372.1.2.3 bus2=node_oh4302383.1.2.3 switch=n length=1101.96374881384 units=ft geometry=#1/0-acsr-6/1:#2-acsr-6/1:3 enabled=true phases=3 
new line.oh4302386 bus1=node_oh4302383.1.2.3 bus2=node_oh4302386.1.2.3 switch=n length=600.1729854800319 units=ft geometry=#1/0-acsr-6/1:#2-acsr-6/1:3 enabled=true phases=3 
new line.oh4302387 bus1=node_oh4302386.1.2.3 bus2=node_oh4302387.1.2.3 switch=n length=362.718317293197 units=ft geometry=#1/0-acsr-6/1:#2-acsr-6/1:3 enabled=true phases=3 
new line.oh4302389 bus1=node_oh4302387.1 bus2=node_oh4302389.1 switch=n length=239.93309671653 units=ft geometry=#1/0-acsr-6/1:#2-acsr-6/1:1 enabled=true phases=1 
new line.oh4302388 bus1=node_oh4302387.1.2.3 bus2=node_oh4302388.1.2.3 switch=n length=302.384331108663 units=ft geometry=#1/0-acsr-6/1:#2-acsr-6/1:3 enabled=true phases=3 
new line.oh4302400 bus1=node_oh4302388.1.2.3 bus2=node_oh4302400.1.2.3 switch=n length=480.591162007903 units=ft geometry=#1/0-acsr-6/1:#2-acsr-6/1:3 enabled=true phases=3 
new line.oh4302397 bus1=node_oh4302388.2 bus2=node_oh4302397.2 switch=n length=306.469323913345 units=ft geometry=#1/0-acsr-6/1:#2-acsr-6/1:1 enabled=true phases=1 
new line.oh4302401 bus1=node_oh4302400.1.2.3 bus2=node_oh4302401.1.2.3 switch=n length=16.5429864292836 units=ft geometry=#1/0-acsr-6/1:#2-acsr-6/1:3 enabled=true phases=3 
new line.oh4302402 bus1=node_oh4302401.1.2.3 bus2=node_oh4302402.1.2.3 switch=n length=466.937950909803 units=ft geometry=#1/0-acsr-6/1:#2-acsr-6/1:3 enabled=true phases=3 
new line.oh4302403 bus1=node_oh4302402.1.2.3 bus2=node_oh4302403.1.2.3 switch=n length=468.88327438723803 units=ft geometry=#1/0-acsr-6/1:#2-acsr-6/1:3 enabled=true phases=3 
new line.oh4302405 bus1=node_oh4302403.1.2.3 bus2=node_oh4302405.1.2.3 switch=n length=382.44191787974603 units=ft geometry=#1/0-acsr-6/1:#2-acsr-6/1:3 enabled=true phases=3 
new line.oh4300609 bus1=node_oh4302405.1.2.3 bus2=node_oh4300609.1.2.3 switch=n length=425.62567637380204 units=ft geometry=#1/0-acsr-6/1:#2-acsr-6/1:3 enabled=true phases=3 
new line.oh4302406 bus1=node_oh4300609.1.2.3 bus2=node_oh4302406.1.2.3 switch=n length=542.84543648193 units=ft geometry=#1/0-acsr-6/1:#2-acsr-6/1:3 enabled=true phases=3 
new line.oh4302407 bus1=node_oh4302406.1.2.3 bus2=node_oh4302407.1.2.3 switch=n length=232.17857117231003 units=ft geometry=#1/0-acsr-6/1:#2-acsr-6/1:3 enabled=true phases=3 
new line.oh4302408 bus1=node_oh4302407.1.2.3 bus2=node_oh4302408.1.2.3 switch=n length=493.9368986028 units=ft geometry=#1/0-acsr-6/1:#2-acsr-6/1:3 enabled=true phases=3 
new line.oh4302437 bus1=node_oh4302408.1.2.3 bus2=node_oh4302437.1.2.3 switch=n length=394.92736610669 units=ft geometry=#1/0-acsr-6/1:#2-acsr-6/1:3 enabled=true phases=3 
new line.oh4302440 bus1=node_oh4302437.1.2.3 bus2=node_oh4302440.1.2.3 switch=n length=715.948826453338 units=ft geometry=#1/0-acsr-6/1:#2-acsr-6/1:3 enabled=true phases=3 
new line.oh4302442 bus1=node_oh4302440.1.2.3 bus2=node_oh4302442.1.2.3 switch=n length=102.336111237192 units=ft geometry=#1/0-acsr-6/1:#2-acsr-6/1:3 enabled=true phases=3 
new line.oh4302448 bus1=node_oh4302442.1.2.3 bus2=node_oh4302448.1.2.3 switch=n length=281.553966487109 units=ft geometry=#1/0-acsr-6/1:#2-acsr-6/1:3 enabled=true phases=3 
new line.oh_3_35_71_1_0003 bus1=node_oh4302448.1.2.3 bus2=node_oh_3_35_71_1_0003.1.2.3 switch=n length=257.82365332591803 units=ft geometry=#1/0-acsr-6/1:#2-acsr-6/1:3 enabled=true phases=3 
new line.ug21000116 bus1=node_oh_3_35_71_1_0003.1.2.3 bus2=node_ug21000116.1.2.3 switch=n length=14.3767715856267 units=ft geometry=#4/0-25kvjac:#4/0-25kvjac:3 enabled=true phases=3 
new line.oh4301302 bus1=node_ug21000126.1.2.3 bus2=node_oh4301302.1.2.3 switch=n length=314.819817345764 units=ft geometry=#2-acsr-6/1:#2-acsr-6/1:3 enabled=true phases=3 
new line.oh4301306 bus1=node_oh4301302.1.2.3 bus2=node_oh4301306.1.2.3 switch=n length=421.190086398884 units=ft geometry=#2-acsr-6/1:#2-acsr-6/1:3 enabled=true phases=3 
new line.oh4301316 bus1=node_oh4301306.1.2.3 bus2=node_oh4301316.1.2.3 switch=n length=486.75411256603104 units=ft geometry=#2-acsr-6/1:#2-acsr-6/1:3 enabled=true phases=3 
new line.oh4301323 bus1=node_oh4301316.1.2.3 bus2=node_oh4301323.1.2.3 switch=n length=179.69141660071202 units=ft geometry=#2-acsr-6/1:#2-acsr-6/1:3 enabled=true phases=3 
new line.oh4300611 bus1=node_oh4301323.1.2.3 bus2=node_oh4300611.1.2.3 switch=n length=513.59621747054 units=ft geometry=#2-acsr-6/1:#2-acsr-6/1:3 enabled=true phases=3 
...

new line.oh3570073 bus1=node_oh3570072.1.2.3 bus2=node_oh3570073.1.2.3 switch=n length=476.47594409369003 units=ft geometry=4a-cwc:4a-cwc:3 enabled=true phases=3 

new line.oh3570074 bus1=node_oh3570073.1.2.3 bus2=node_oh3570074.1.2.3 switch=n length=472.15402677530096 units=ft geometry=4a-cwc:4a-cwc:3 enabled=true phases=3 
new line.oh3580001 bus1=node_oh3570074.1.2.3 bus2=node_oh3580001.1.2.3 switch=n length=446.17121209232397 units=ft geometry=4a-cwc:4a-cwc:3 enabled=true phases=3 
new line.oh3580004 bus1=node_oh3580001.1.2.3 bus2=node_oh3580004.1.2.3 switch=n length=534.675187847641 units=ft geometry=4a-cwc:4a-cwc:3 enabled=true phases=3 
new line.oh3580010 bus1=node_oh3580004.1.2.3 bus2=node_oh3580010.1.2.3 switch=n length=530.080058953437 units=ft geometry=4a-cwc:4a-cwc:3 enabled=true phases=3 
new line.oh3580012 bus1=node_oh3580010.1.2.3 bus2=node_oh3580012.1.2.3 switch=n length=538.013319723602 units=ft geometry=4a-cwc:4a-cwc:3 enabled=true phases=3 
new line.oh3580013 bus1=node_oh3580012.1.2.3 bus2=node_oh3580013.1.2.3 switch=n length=532.927303203654 units=ft geometry=4a-cwc:4a-cwc:3 enabled=true phases=3 
new line.oh3580014 bus1=node_oh3580013.1.2.3 bus2=node_oh3580014.1.2.3 switch=n length=525.935385099897 units=ft geometry=4a-cwc:4a-cwc:3 enabled=true phases=3 
new line.oh3580015 bus1=node_oh3580014.1.2.3 bus2=node_oh3580015.1.2.3 switch=n length=556.16224431357 units=ft geometry=4a-cwc:4a-cwc:3 enabled=true phases=3 
new line.oh3580017 bus1=node_oh3580015.1.2.3 bus2=node_oh3580017.1.2.3 switch=n length=606.7941715277469 units=ft geometry=4a-cwc:4a-cwc:3 enabled=true phases=3 
new line.oh3580018 bus1=node_oh3580017.1.2.3 bus2=node_oh3580018.1.2.3 switch=n length=605.083109994065 units=ft geometry=4a-cwc:4a-cwc:3 enabled=true phases=3 
new line.oh3580019 bus1=node_oh3580018.1.2.3 bus2=node_oh3580019.1.2.3 switch=n length=626.374259528478 units=ft geometry=4a-cwc:4a-cwc:3 enabled=true phases=3 
new line.oh3580020 bus1=node_oh3580019.1.2.3 bus2=node_oh3580020.1.2.3 switch=n length=449.87368149303904 units=ft geometry=4a-cwc:4a-cwc:3 enabled=true phases=3 
new line.oh3580023 bus1=node_oh3580020.1.2.3 bus2=node_oh3580023.1.2.3 switch=n length=626.780453827354 units=ft geometry=4a-cwc:4a-cwc:3 enabled=true phases=3 
new line.oh3580024 bus1=node_oh3580023.1.2.3 bus2=node_oh3580024.1.2.3 switch=n length=449.290763871032 units=ft geometry=4a-cwc:4a-cwc:3 enabled=true phases=3 
new line.oh3580025 bus1=node_oh3580024.1.2.3 bus2=node_oh3580025.1.2.3 switch=n length=446.35623900656304 units=ft geometry=4a-cwc:4a-cwc:3 enabled=true phases=3 
new line.oh3580026 bus1=node_oh3580025.1.2.3 bus2=node_oh3580026.1.2.3 switch=n length=451.400439742706 units=ft geometry=4a-cwc:4a-cwc:3 enabled=true phases=3 
new line.oh3580027 bus1=node_oh3580026.1.2.3 bus2=node_oh3580027.1.2.3 switch=n length=528.9192022418521 units=ft geometry=4a-cwc:4a-cwc:3 enabled=true phases=3 
new line.oh3580028 bus1=node_oh3580027.1.2.3 bus2=node_oh3580028.1.2.3 switch=n length=539.630818708383 units=ft geometry=4a-cwc:4a-cwc:3 enabled=true phases=3 
new line.oh3580029 bus1=node_oh3580028.1.2.3 bus2=node_oh3580029.1.2.3 switch=n length=441.543713011727 units=ft geometry=4a-cwc:4a-cwc:3 enabled=true phases=3 
new line.oh3580030 bus1=node_oh3580029.1.2.3 bus2=node_oh3580030.1.2.3 switch=n length=494.623770759036 units=ft geometry=4a-cwc:4a-cwc:3 enabled=true phases=3 
new line.oh3580031 bus1=node_oh3580030.1.2.3 bus2=node_oh3580031.1.2.3 switch=n length=427.66551053366 units=ft geometry=4a-cwc:4a-cwc:3 enabled=true phases=3 
new line.oh3580032 bus1=node_oh3580031.1.2.3 bus2=node_oh3580032.1.2.3 switch=n length=507.746339228505 units=ft geometry=4a-cwc:4a-cwc:3 enabled=true phases=3 
new line.oh3580033 bus1=node_oh3580032.1.2.3 bus2=node_oh3580033.1.2.3 switch=n length=529.987503249028 units=ft geometry=4a-cwc:4a-cwc:3 enabled=true phases=3 
new line.oh3580034 bus1=node_oh3580033.1.2.3 bus2=node_oh3580034.1.2.3 switch=n length=527.725319839682 units=ft geometry=4a-cwc:4a-cwc:3 enabled=true phases=3 
new line.oh3480001 bus1=node_oh3580034.1.2.3 bus2=node_oh3480001.1.2.3 switch=n length=522.630160821241 units=ft geometry=4a-cwc:4a-cwc:3 enabled=true phases=3 
new line.oh3480002 bus1=node_oh3480001.1.2.3 bus2=node_oh3480002.1.2.3 switch=n length=506.527910879442 units=ft geometry=4a-cwc:4a-cwc:3 enabled=true phases=3 
new line.oh3490001 bus1=node_oh3480002.1 bus2=node_oh3490001.1 switch=n length=407.318667016427 units=ft geometry=#4/0-acsr-6/1:#4/0-acsr-6/1:1 enabled=true phases=1 
new line.oh3490002 bus1=node_oh3480002.2 bus2=node_oh3490002.2 switch=n length=406.085692557748 units=ft geometry=#4/0-acsr-6/1:#4/0-acsr-6/1:1 enabled=true phases=1 
new line.oh3490003 bus1=node_oh3480002.3 bus2=node_oh3490003.3 switch=n length=409.710329989567 units=ft geometry=#4/0-acsr-6/1:#4/0-acsr-6/1:1 enabled=true phases=1 
new line.oh3570017 bus1=node_oh3570016.3 bus2=node_oh3570017.3 switch=n length=398.10235731516195 units=ft geometry=#4/0-acsr-6/1:#4/0-acsr-6/1:1 enabled=true phases=1 
new line.oh3570018 bus1=node_oh3570017.3 bus2=node_oh3570018.3 switch=n length=573.133216015386 units=ft geometry=#4/0-acsr-6/1:#4/0-acsr-6/1:1 enabled=true phases=1 
new line.oh3570019 bus1=node_oh3570018.3 bus2=node_oh3570019.3 switch=n length=574.480959823678 units=ft geometry=#4/0-acsr-6/1:#4/0-acsr-6/1:1 enabled=true phases=1 
new line.oh3570020 bus1=node_oh3570019.3 bus2=node_oh3570020.3 switch=n length=216.884366656694 units=ft geometry=#4/0-acsr-6/1:#4/0-acsr-6/1:1 enabled=true phases=1 
new line.oh3570022 bus1=node_oh3570019.3 bus2=node_oh3570022.3 switch=n length=572.420283794971 units=ft geometry=#4/0-acsr-6/1:#4/0-acsr-6/1:1 enabled=true phases=1 
new line.oh3570023 bus1=node_oh3570022.3 bus2=node_oh3570023.3 switch=n length=571.870005595789 units=ft geometry=#4/0-acsr-6/1:#4/0-acsr-6/1:1 enabled=true phases=1 
new line.oh3570026 bus1=node_oh3570023.3 bus2=node_oh3570026.3 switch=n length=573.690184420072 units=ft geometry=#4/0-acsr-6/1:#4/0-acsr-6/1:1 enabled=true phases=1 
new line.oh3570024 bus1=node_oh3570023.3 bus2=node_oh3570024.3 switch=n length=202.701941036712 units=ft geometry=#4/0-acsr-6/1:#4/0-acsr-6/1:1 enabled=true phases=1 
new line.oh3570027 bus1=node_oh3570026.3 bus2=node_oh3570027.3 switch=n length=490.02016325863406 units=ft geometry=#4/0-acsr-6/1:#4/0-acsr-6/1:1 enabled=true phases=1 
new line.oh3570028 bus1=node_oh3570027.3 bus2=node_oh3570028.3 switch=n length=201.365187160047 units=ft geometry=#4/0-acsr-6/1:#4/0-acsr-6/1:1 enabled=true phases=1 
new line.oh3570083 bus1=node_oh3570027.3 bus2=node_oh3570083.3 switch=n length=536.286448924482 units=ft geometry=#4/0-acsr-6/1:#4/0-acsr-6/1:1 enabled=true phases=1 
new line.oh3570084 bus1=node_oh3570083.3 bus2=node_oh3570084.3 switch=n length=498.532664727226 units=ft geometry=#4/0-acsr-6/1:#4/0-acsr-6/1:1 enabled=true phases=1 
new line.oh3570085 bus1=node_oh3570084.3 bus2=node_oh3570085.3 switch=n length=854.120014986063 units=ft geometry=#4/0-acsr-6/1:#4/0-acsr-6/1:1 enabled=true phases=1 
new line.oh3570086 bus1=node_oh3570085.3 bus2=node_oh3570086.3 switch=n length=496.750966682502 units=ft geometry=#4/0-acsr-6/1:#4/0-acsr-6/1:1 enabled=true phases=1 
new line.oh3570087 bus1=node_oh3570086.3 bus2=node_oh3570087.3 switch=n length=502.313899966982 units=ft geometry=#4/0-acsr-6/1:#4/0-acsr-6/1:1 enabled=true phases=1 
new line.oh3570088 bus1=node_oh3570087.3 bus2=node_oh3570088.3 switch=n length=569.308223724244 units=ft geometry=#4/0-acsr-6/1:#4/0-acsr-6/1:1 enabled=true phases=1 
new line.oh3570030 bus1=node_oh3570088.3 bus2=node_oh3570030.3 switch=n length=573.111369717823 units=ft geometry=#4/0-acsr-6/1:#4/0-acsr-6/1:1 enabled=true phases=1 
new line.oh3570091 bus1=node_oh3570035.3 bus2=node_oh3570091.3 switch=n length=568.6859893648909 units=ft geometry=#4/0-acsr-6/1:#4/0-acsr-6/1:1 enabled=true phases=1 
new line.oh3570092 bus1=node_oh3570091.3 bus2=node_oh3570092.3 switch=n length=67.75075571534161 units=ft geometry=#4/0-acsr-6/1:#4/0-acsr-6/1:1 enabled=true phases=1 
new line.oh3570094 bus1=node_oh3570093.3 bus2=node_oh3570094.3 switch=n length=571.9265156468219 units=ft geometry=#4/0-acsr-6/1:#4/0-acsr-6/1:1 enabled=true phases=1 
new line.oh3570036 bus1=node_oh3570094.3 bus2=node_oh3570036.3 switch=n length=258.433806612203 units=ft geometry=#4/0-acsr-6/1:#4/0-acsr-6/1:1 enabled=true phases=1 
new line.oh3570037 bus1=node_sw3570004.3 bus2=node_oh3570037.3 switch=n length=304.320851733656 units=ft geometry=#4/0-acsr-6/1:#4/0-acsr-6/1:1 enabled=true phases=1 
new line.oh3570040 bus1=node_oh3570037.3 bus2=node_oh3570040.3 switch=n length=385.97001178867697 units=ft geometry=#4/0-acsr-6/1:#4/0-acsr-6/1:1 enabled=true phases=1 
new line.oh3570038 bus1=node_oh3570037.3 bus2=node_oh3570038.3 switch=n length=344.95388967219003 units=ft geometry=#4/0-acsr-6/1:#4/0-acsr-6/1:1 enabled=true phases=1 
new line.oh3570043 bus1=node_oh3570042.3 bus2=node_oh3570043.3 switch=n length=356.15439826022003 units=ft geometry=#4/0-acsr-6/1:#4/0-acsr-6/1:1 enabled=true phases=1 
new line.oh3670001 bus1=node_oh3570043.3 bus2=node_oh3670001.3 switch=n length=210.301717777149 units=ft geometry=#4/0-acsr-6/1:#4/0-acsr-6/1:1 enabled=true phases=1 
new line.oh3670004 bus1=node_oh3670002.3 bus2=node_oh3670004.3 switch=n length=189.59025344131902 units=ft geometry=#4/0-acsr-6/1:#4/0-acsr-6/1:1 enabled=true phases=1 
new line.oh3670005 bus1=node_oh3670004.3 bus2=node_oh3670005.3 switch=n length=564.410221470313 units=ft geometry=#4/0-acsr-6/1:#4/0-acsr-6/1:1 enabled=true phases=1 
new line.oh3670008 bus1=node_oh3670005.3 bus2=node_oh3670008.3 switch=n length=558.701398333625 units=ft geometry=#4/0-acsr-6/1:#4/0-acsr-6/1:1 enabled=true phases=1 
new line.oh3670012 bus1=node_oh3670010.3 bus2=node_oh3670012.3 switch=n length=314.302329135546 units=ft geometry=#4/0-acsr-6/1:#4/0-acsr-6/1:1 enabled=true phases=1 
new line.oh3670014 bus1=node_oh3670012.3 bus2=node_oh3670014.3 switch=n length=332.09016396138696 units=ft geometry=#4/0-acsr-6/1:#4/0-acsr-6/1:1 enabled=true phases=1 
new line.oh3670013 bus1=node_oh3670012.3 bus2=node_oh3670013.3 switch=n length=447.099451241054 units=ft geometry=#4/0-acsr-6/1:#4/0-acsr-6/1:1 enabled=true phases=1 
new line.oh3670017 bus1=node_oh3670016.3 bus2=node_oh3670017.3 switch=n length=332.746068045871 units=ft geometry=#4/0-acsr-6/1:#4/0-acsr-6/1:1 enabled=true phases=1 
new line.oh3670020 bus1=node_oh3670017.3 bus2=node_oh3670020.3 switch=n length=174.31124949336498 units=ft geometry=#4/0-acsr-6/1:#4/0-acsr-6/1:1 enabled=true phases=1 
new line.oh3670021 bus1=node_sw3670002.3 bus2=node_oh3670021.3 switch=n length=93.9300431173728 units=ft geometry=#4/0-acsr-6/1:#4/0-acsr-6/1:1 enabled=true phases=1 
new line.oh3670052 bus1=node_oh3670051.3 bus2=node_oh3670052.3 switch=n length=574.640226315692 units=ft geometry=#4/0-acsr-6/1:#4/0-acsr-6/1:1 enabled=true phases=1 
new line.oh3670053 bus1=node_oh3670052.3 bus2=node_oh3670053.3 switch=n length=338.567307340838 units=ft geometry=#4/0-acsr-6/1:#4/0-acsr-6/1:1 enabled=true phases=1 
new line.oh3670054 bus1=node_oh3670053.3 bus2=node_oh3670054.3 switch=n length=231.96565694081298 units=ft geometry=#4/0-acsr-6/1:#4/0-acsr-6/1:1 enabled=true phases=1 
new line.oh3670033 bus1=node_oh3670054.3 bus2=node_oh3670033.3 switch=n length=354.810456723061 units=ft geometry=#4/0-acsr-6/1:#4/0-acsr-6/1:1 enabled=true phases=1 
new line.oh3670035 bus1=node_oh3670034.3 bus2=node_oh3670035.3 switch=n length=574.851944851873 units=ft geometry=#4/0-acsr-6/1:#4/0-acsr-6/1:1 enabled=true phases=1 
new line.oh3670055 bus1=node_oh3670036.3 bus2=node_oh3670055.3 switch=n length=495.053240369097 units=ft geometry=#4/0-acsr-6/1:#4/0-acsr-6/1:1 enabled=true phases=1 
new line.oh3660013 bus1=node_oh3670055.3 bus2=node_oh3660013.3 switch=n length=503.250097069167 units=ft geometry=#4/0-acsr-6/1:#4/0-acsr-6/1:1 enabled=true phases=1 
new line.oh3660014 bus1=node_oh3660013.3 bus2=node_oh3660014.3 switch=n length=498.712346448209 units=ft geometry=#4/0-acsr-6/1:#4/0-acsr-6/1:1 enabled=true phases=1 
new line.oh3660015 bus1=node_oh3660014.3 bus2=node_oh3660015.3 switch=n length=506.334135724728 units=ft geometry=#4/0-acsr-6/1:#4/0-acsr-6/1:1 enabled=true phases=1 
new line.oh3660008 bus1=node_oh3660015.3 bus2=node_oh3660008.3 switch=n length=514.881602312489 units=ft geometry=#4/0-acsr-6/1:#4/0-acsr-6/1:1 enabled=true phases=1 
new line.oh3660016 bus1=node_oh3660008.3 bus2=node_oh3660016.3 switch=n length=122.09426071691999 units=ft geometry=#4/0-acsr-6/1:#4/0-acsr-6/1:1 enabled=true phases=1 
new line.oh3660010 bus1=node_oh3660008.3 bus2=node_oh3660010.3 switch=n length=267.923657970062 units=ft geometry=#4/0-acsr-6/1:#4/0-acsr-6/1:1 enabled=true phases=1 
new line.oh3660017 bus1=node_oh3660016.3 bus2=node_oh3660017.3 switch=n length=473.992483062742 units=ft geometry=#4/0-acsr-6/1:#4/0-acsr-6/1:1 enabled=true phases=1 
new line.oh3660018 bus1=node_oh3660017.3 bus2=node_oh3660018.3 switch=n length=447.610555393702 units=ft geometry=#4/0-acsr-6/1:#4/0-acsr-6/1:1 enabled=true phases=1 
new line.oh3660019 bus1=node_oh3660018.3 bus2=node_oh3660019.3 switch=n length=438.757122449311 units=ft geometry=#4/0-acsr-6/1:#4/0-acsr-6/1:1 enabled=true phases=1 
new line.oh3660020 bus1=node_oh3660019.3 bus2=node_oh3660020.3 switch=n length=439.403305631737 units=ft geometry=#4/0-acsr-6/1:#4/0-acsr-6/1:1 enabled=true phases=1 
new line.oh3660021 bus1=node_oh3660020.3 bus2=node_oh3660021.3 switch=n length=438.660912437024 units=ft geometry=#4/0-acsr-6/1:#4/0-acsr-6/1:1 enabled=true phases=1 
new line.oh3660011 bus1=node_oh3660010.3 bus2=node_oh3660011.3 switch=n length=217.022880360486 units=ft geometry=#4/0-acsr-6/1:#4/0-acsr-6/1:1 enabled=true phases=1 
new line.oh3660012 bus1=node_oh3660011.3 bus2=node_oh3660012.3 switch=n length=537.329609550946 units=ft geometry=#4/0-acsr-6/1:#4/0-acsr-6/1:1 enabled=true phases=1 
new line.oh3670038 bus1=node_oh3670037.3 bus2=node_oh3670038.3 switch=n length=506.08219806673304 units=ft geometry=#4/0-acsr-6/1:#4/0-acsr-6/1:1 enabled=true phases=1 
new line.oh3670040 bus1=node_oh3670039.3 bus2=node_oh3670040.3 switch=n length=494.171559278676 units=ft geometry=#4/0-acsr-6/1:#4/0-acsr-6/1:1 enabled=true phases=1 
new line.oh3670042 bus1=node_oh3670040.3 bus2=node_oh3670042.3 switch=n length=452.445013786151 units=ft geometry=#4/0-acsr-6/1:#4/0-acsr-6/1:1 enabled=true phases=1 
new line.oh3670043 bus1=node_oh3670042.3 bus2=node_oh3670043.3 switch=n length=592.642746517766 units=ft geometry=#4/0-acsr-6/1:#4/0-acsr-6/1:1 enabled=true phases=1 
new line.oh3670044 bus1=node_oh3670043.3 bus2=node_oh3670044.3 switch=n length=465.217043647334 units=ft geometry=#4/0-acsr-6/1:#4/0-acsr-6/1:1 enabled=true phases=1 
new line.oh3670045 bus1=node_oh3670044.3 bus2=node_oh3670045.3 switch=n length=521.1796144324829 units=ft geometry=#4/0-acsr-6/1:#4/0-acsr-6/1:1 enabled=true phases=1 
new line.oh3670046 bus1=node_oh3670045.3 bus2=node_oh3670046.3 switch=n length=541.711031916505 units=ft geometry=#4/0-acsr-6/1:#4/0-acsr-6/1:1 enabled=true phases=1 
new line.oh3670047 bus1=node_oh3670046.3 bus2=node_oh3670047.3 switch=n length=517.1781760669841 units=ft geometry=#4/0-acsr-6/1:#4/0-acsr-6/1:1 enabled=true phases=1 
new line.oh3670048 bus1=node_oh3670047.3 bus2=node_oh3670048.3 switch=n length=601.984914844257 units=ft geometry=#4/0-acsr-6/1:#4/0-acsr-6/1:1 enabled=true phases=1 
new line.oh3670049 bus1=node_sw3670004.3 bus2=node_oh3670049.3 switch=n length=642.757960355101 units=ft geometry=#4/0-acsr-6/1:#4/0-acsr-6/1:1 enabled=true phases=1 
new line.oh3670056 bus1=node_oh3670049.3 bus2=node_oh3670056.3 switch=n length=687.960699822303 units=ft geometry=#4/0-acsr-6/1:#4/0-acsr-6/1:1 enabled=true phases=1 
new line.oh3770111 bus1=node_oh3670056.3 bus2=node_oh3770111.3 switch=n length=1878.33802495724 units=ft geometry=#4/0-acsr-6/1:#4/0-acsr-6/1:1 enabled=true phases=1 
new line.oh3770112 bus1=node_oh3770111.3 bus2=node_oh3770112.3 switch=n length=719.1492365982491 units=ft geometry=#4/0-acsr-6/1:#4/0-acsr-6/1:1 enabled=true phases=1 
new line.oh3770113 bus1=node_oh3770112.3 bus2=node_oh3770113.3 switch=n length=270.0657479208 units=ft geometry=#4/0-acsr-6/1:#4/0-acsr-6/1:1 enabled=true phases=1 
new line.oh3770114 bus1=node_oh3770113.3 bus2=node_oh3770114.3 switch=n length=1043.12721584839 units=ft geometry=#4/0-acsr-6/1:#4/0-acsr-6/1:1 enabled=true phases=1 
new line.oh_3_58_8_4_0001 bus1=node_oh3770114.3 bus2=node_oh_3_58_8_4_0001.3 switch=n length=157.749559595453 units=ft geometry=#4/0-acsr-6/1:#4/0-acsr-6/1:1 enabled=true phases=1 
new line.oh3770115 bus1=node_oh_3_58_8_4_0001.3 bus2=node_oh3770115.3 switch=n length=566.53162674314 units=ft geometry=#4/0-acsr-6/1:#4/0-acsr-6/1:1 enabled=true phases=1 
new line.oh3770001 bus1=node_oh_3_58_8_4_0001.3 bus2=node_oh3770001.3 switch=n length=652.940529604228 units=ft geometry=#4/0-acsr-6/1:#4/0-acsr-6/1:1 enabled=true phases=1 
new line.oh3770002 bus1=node_oh3770001.3 bus2=node_oh3770002.3 switch=n length=400.563320587407 units=ft geometry=#4/0-acsr-6/1:#4/0-acsr-6/1:1 enabled=true phases=1 
new line.oh3770003 bus1=node_oh3770001.3 bus2=node_oh3770003.3 switch=n length=1088.82152816716 units=ft geometry=#4/0-acsr-6/1:#4/0-acsr-6/1:1 enabled=true phases=1 
new line.oh3770010 bus1=node_oh3770003.3 bus2=node_oh3770010.3 switch=n length=170.392746617807 units=ft geometry=#4/0-acsr-6/1:#4/0-acsr-6/1:1 enabled=true phases=1 
new line.oh3770011 bus1=node_oh3770010.3 bus2=node_oh3770011.3 switch=n length=301.699106064398 units=ft geometry=#4/0-acsr-6/1:#4/0-acsr-6/1:1 enabled=true phases=1 
new line.oh3770012 bus1=node_oh3770010.3 bus2=node_oh3770012.3 switch=n length=484.708300939904 units=ft geometry=#4/0-acsr-6/1:#4/0-acsr-6/1:1 enabled=true phases=1 
new line.oh3770117 bus1=node_oh3770011.3 bus2=node_oh3770117.3 switch=n length=628.645754379986 units=ft geometry=#4/0-acsr-6/1:#4/0-acsr-6/1:1 enabled=true phases=1 
new line.oh3770032 bus1=node_oh3770011.3 bus2=node_oh3770032.3 switch=n length=239.916864142403 units=ft geometry=#4/0-acsr-6/1:#4/0-acsr-6/1:1 enabled=true phases=1 
new line.oh3770029 bus1=node_oh3770011.3 bus2=node_oh3770029.3 switch=n length=222.464687085299 units=ft geometry=#4/0-acsr-6/1:#4/0-acsr-6/1:1 enabled=true phases=1 
new line.oh3770035 bus1=node_oh3770117.3 bus2=node_oh3770035.3 switch=n length=299.466936100859 units=ft geometry=#4/0-acsr-6/1:#4/0-acsr-6/1:1 enabled=true phases=1 
new line.oh3770119 bus1=node_oh3770040.3 bus2=node_oh3770119.3 switch=n length=266.666947708231 units=ft geometry=#4/0-acsr-6/1:#4/0-acsr-6/1:1 enabled=true phases=1 
new line.oh3770041 bus1=node_oh3770119.3 bus2=node_oh3770041.3 switch=n length=375.38603117336 units=ft geometry=#4/0-acsr-6/1:#4/0-acsr-6/1:1 enabled=true phases=1 
new line.oh3770048 bus1=node_oh3770041.3 bus2=node_oh3770048.3 switch=n length=354.669362223408 units=ft geometry=#4/0-acsr-6/1:#4/0-acsr-6/1:1 enabled=true phases=1 
new line.oh3770042 bus1=node_oh3770041.3 bus2=node_oh3770042.3 switch=n length=603.8700082798599 units=ft geometry=#4/0-acsr-6/1:#4/0-acsr-6/1:1 enabled=true phases=1 
new line.oh3770050 bus1=node_oh3770048.3 bus2=node_oh3770050.3 switch=n length=153.333636231676 units=ft geometry=#4/0-acsr-6/1:#4/0-acsr-6/1:1 enabled=true phases=1 
new line.oh3770051 bus1=node_oh3770050.3 bus2=node_oh3770051.3 switch=n length=344.373833210311 units=ft geometry=#4/0-acsr-6/1:#4/0-acsr-6/1:1 enabled=true phases=1 
new line.oh3770052 bus1=node_oh3770050.3 bus2=node_oh3770052.3 switch=n length=132.37120268389998 units=ft geometry=#4/0-acsr-6/1:#4/0-acsr-6/1:1 enabled=true phases=1 
new line.oh3770058 bus1=node_oh3770051.3 bus2=node_oh3770058.3 switch=n length=103.978399680154 units=ft geometry=#4/0-acsr-6/1:#4/0-acsr-6/1:1 enabled=true phases=1 
new line.oh3770061 bus1=node_oh3770058.3 bus2=node_oh3770061.3 switch=n length=209.139175909072 units=ft geometry=#4/0-acsr-6/1:#4/0-acsr-6/1:1 enabled=true phases=1 
new line.oh3770062 bus1=node_oh3770061.3 bus2=node_oh3770062.3 switch=n length=62.736404901748294 units=ft geometry=#4/0-acsr-6/1:#4/0-acsr-6/1:1 enabled=true phases=1 
new line.oh3770068 bus1=node_oh3770062.3 bus2=node_oh3770068.3 switch=n length=167.88691015086002 units=ft geometry=#4/0-acsr-6/1:#4/0-acsr-6/1:1 enabled=true phases=1 
new line.oh3770079 bus1=node_oh3770068.3 bus2=node_oh3770079.3 switch=n length=646.62881346275 units=ft geometry=#4/0-acsr-6/1:#4/0-acsr-6/1:1 enabled=true phases=1 
new line.oh3770069 bus1=node_oh3770068.3 bus2=node_oh3770069.3 switch=n length=359.580217753908 units=ft geometry=#4/0-acsr-6/1:#4/0-acsr-6/1:1 enabled=true phases=1 
new line.oh3770084 bus1=node_oh3770079.3 bus2=node_oh3770084.3 switch=n length=166.33391295816298 units=ft geometry=#4/0-acsr-6/1:#4/0-acsr-6/1:1 enabled=true phases=1 
new line.oh3770083 bus1=node_oh3770079.3 bus2=node_oh3770083.3 switch=n length=287.77575471189203 units=ft geometry=#4/0-acsr-6/1:#4/0-acsr-6/1:1 enabled=true phases=1 
new line.oh3770085 bus1=node_oh3770084.3 bus2=node_oh3770085.3 switch=n length=253.299577575718 units=ft geometry=#4/0-acsr-6/1:#4/0-acsr-6/1:1 enabled=true phases=1 
new line.oh3770086 bus1=node_oh3770085.3 bus2=node_oh3770086.3 switch=n length=285.216191160316 units=ft geometry=#4/0-acsr-6/1:#4/0-acsr-6/1:1 enabled=true phases=1 
new line.oh3770088 bus1=node_oh3770085.3 bus2=node_oh3770088.3 switch=n length=495.41243434129206 units=ft geometry=#4/0-acsr-6/1:#4/0-acsr-6/1:1 enabled=true phases=1 
new line.oh3770092 bus1=node_oh3770088.3 bus2=node_oh3770092.3 switch=n length=592.214065351352 units=ft geometry=#4/0-acsr-6/1:#4/0-acsr-6/1:1 enabled=true phases=1 
new line.oh3770095 bus1=node_oh3770092.3 bus2=node_oh3770095.3 switch=n length=610.089083413268 units=ft geometry=#4/0-acsr-6/1:#4/0-acsr-6/1:1 enabled=true phases=1 
new line.oh3770099 bus1=node_oh3770095.3 bus2=node_oh3770099.3 switch=n length=282.405970368763 units=ft geometry=#4/0-acsr-6/1:#4/0-acsr-6/1:1 enabled=true phases=1 
new line.oh3770096 bus1=node_oh3770095.3 bus2=node_oh3770096.3 switch=n length=521.279413174934 units=ft geometry=#4/0-acsr-6/1:#4/0-acsr-6/1:1 enabled=true phases=1 
new line.oh3770103 bus1=node_oh3770099.3 bus2=node_oh3770103.3 switch=n length=506.720945886454 units=ft geometry=#4/0-acsr-6/1:#4/0-acsr-6/1:1 enabled=true phases=1 
new line.oh3770100 bus1=node_oh3770099.3 bus2=node_oh3770100.3 switch=n length=502.63927214644997 units=ft geometry=#4/0-acsr-6/1:#4/0-acsr-6/1:1 enabled=true phases=1 
new line.oh3770105 bus1=node_oh3770103.3 bus2=node_oh3770105.3 switch=n length=270.575144460798 units=ft geometry=#4/0-acsr-6/1:#4/0-acsr-6/1:1 enabled=true phases=1 
new line.oh3770104 bus1=node_oh3770103.3 bus2=node_oh3770104.3 switch=n length=564.585023269247 units=ft geometry=#4/0-acsr-6/1:#4/0-acsr-6/1:1 enabled=true phases=1 
new line.oh3770106 bus1=node_oh3770104.3 bus2=node_oh3770106.3 switch=n length=490.936605785406 units=ft geometry=#4/0-acsr-6/1:#4/0-acsr-6/1:1 enabled=true phases=1 
new line.oh3770107 bus1=node_oh3770106.3 bus2=node_oh3770107.3 switch=n length=242.747503591716 units=ft geometry=#4/0-acsr-6/1:#4/0-acsr-6/1:1 enabled=true phases=1 
new line.oh3770108 bus1=node_oh3770107.3 bus2=node_oh3770108.3 switch=n length=351.3613530256101 units=ft geometry=#4/0-acsr-6/1:#4/0-acsr-6/1:1 enabled=true phases=1 
new line.oh3770109 bus1=node_oh3770108.3 bus2=node_oh3770109.3 switch=n length=135.037986507543 units=ft geometry=#4/0-acsr-6/1:#4/0-acsr-6/1:1 enabled=true phases=1 
new line.oh3770110 bus1=node_oh3770109.3 bus2=node_oh3770110.3 switch=n length=248.70375972222303 units=ft geometry=#4/0-acsr-6/1:#4/0-acsr-6/1:1 enabled=true phases=1 
new line.oh3780001 bus1=node_oh3770110.3 bus2=node_oh3780001.3 switch=n length=578.330343748328 units=ft geometry=#4/0-acsr-6/1:#4/0-acsr-6/1:1 enabled=true phases=1 
new line.oh3780002 bus1=node_oh3780001.3 bus2=node_oh3780002.3 switch=n length=709.0026282744001 units=ft geometry=#4/0-acsr-6/1:#4/0-acsr-6/1:1 enabled=true phases=1 
new line.oh3780003 bus1=node_oh3780002.3 bus2=node_oh3780003.3 switch=n length=198.883247157542 units=ft geometry=#4/0-acsr-6/1:#4/0-acsr-6/1:1 enabled=true phases=1 
new line.oh3780004 bus1=node_oh3780003.3 bus2=node_oh3780004.3 switch=n length=664.9929853015129 units=ft geometry=#4/0-acsr-6/1:#4/0-acsr-6/1:1 enabled=true phases=1 
new line.oh3780005 bus1=node_oh3780004.3 bus2=node_oh3780005.3 switch=n length=505.0232929282 units=ft geometry=#4/0-acsr-6/1:#4/0-acsr-6/1:1 enabled=true phases=1 
new line.oh3780006 bus1=node_oh3780005.3 bus2=node_oh3780006.3 switch=n length=493.177499283846 units=ft geometry=#4/0-acsr-6/1:#4/0-acsr-6/1:1 enabled=true phases=1 
new line.oh3780015 bus1=node_oh3780006.3 bus2=node_oh3780015.3 switch=n length=146.585211054848 units=ft geometry=#4/0-acsr-6/1:#4/0-acsr-6/1:1 enabled=true phases=1 
new line.oh3780007 bus1=node_oh3780006.3 bus2=node_oh3780007.3 switch=n length=430.00259371326 units=ft geometry=#4/0-acsr-6/1:#4/0-acsr-6/1:1 enabled=true phases=1 
new line.oh3780016 bus1=node_oh3780015.3 bus2=node_oh3780016.3 switch=n length=422.980530639329 units=ft geometry=#4/0-acsr-6/1:#4/0-acsr-6/1:1 enabled=true phases=1 
new line.oh3780008 bus1=node_oh3780007.3 bus2=node_oh3780008.3 switch=n length=519.120335278778 units=ft geometry=#4/0-acsr-6/1:#4/0-acsr-6/1:1 enabled=true phases=1 
new line.oh3780009 bus1=node_oh3780008.3 bus2=node_oh3780009.3 switch=n length=342.563278971925 units=ft geometry=#4/0-acsr-6/1:#4/0-acsr-6/1:1 enabled=true phases=1 
new line.oh3780010 bus1=node_oh3780009.3 bus2=node_oh3780010.3 switch=n length=544.046362914012 units=ft geometry=#4/0-acsr-6/1:#4/0-acsr-6/1:1 enabled=true phases=1 
new line.oh3780011 bus1=node_oh3780010.3 bus2=node_oh3780011.3 switch=n length=506.380069513115 units=ft geometry=#4/0-acsr-6/1:#4/0-acsr-6/1:1 enabled=true phases=1 
...