files/ojo_caliente_consultants/Fuses.dss
new line.el_rito bus1=node_ojo_caliente.1.2.3 bus2=node_el_rito.1.2.3 switch=y length=1 units=ft enabled=true phases=3  r0=0.01 r1=0.01 x0=0.01 x1=0.01 b0=0 b1=0
new line.carson bus1=node_ojo_caliente.1.2.3 bus2=node_carson.1.2.3 switch=y length=1 units=ft enabled=true phases=3  r0=0.01 r1=0.01 x0=0.01 x1=0.01 b0=0 b1=0
new line.bay_ojo_caliente bus1=node_ojo_caliente.1.2.3 bus2=node_bay_ojo_caliente.1.2.3 switch=y length=1 units=ft enabled=true phases=3  r0=0.01 r1=0.01 x0=0.01 x1=0.01 b0=0 b1=0
new line.la_madera bus1=node_ojo_caliente.1.2.3 bus2=node_la_madera.1.2.3 switch=y length=1 units=ft enabled=true phases=3  r0=0.01 r1=0.01 x0=0.01 x1=0.01 b0=0 b1=0
new line.ocd21000118 bus1=node_ug21000119.1.2.3 bus2=node_ocd21000118.1.2.3 switch=y length=1 units=ft enabled=true phases=3  r0=0.01 r1=0.01 x0=0.01 x1=0.01 b0=0 b1=0
new line.ocd21000120 bus1=node_ug21000121.1.2.3 bus2=node_ocd21000120.1.2.3 switch=y length=1 units=ft enabled=true phases=3  r0=0.01 r1=0.01 x0=0.01 x1=0.01 b0=0 b1=0
new line.ocd21000122 bus1=node_ug21000123.1.2.3 bus2=node_ocd21000122.1.2.3 switch=y length=1 units=ft enabled=true phases=3  r0=0.01 r1=0.01 x0=0.01 x1=0.01 b0=0 b1=0
new line.63232-63900-cp571127447 bus1=node_oh4301004.1.2.3 bus2=node_63232-63900-cp571127447.1.2.3 switch=y length=1 units=ft enabled=true phases=3  r0=0.01 r1=0.01 x0=0.01 x1=0.01 b0=0 b1=0
new line.64044-cp571113943-56704 bus1=node_oh4301053.1.2.3 bus2=node_64044-cp571113943-56704.1.2.3 switch=y length=1 units=ft enabled=true phases=3  r0=0.01 r1=0.01 x0=0.01 x1=0.01 b0=0 b1=0
new line.ocd4300153 bus1=node_oh4301275.1 bus2=node_ocd4300153.1 switch=y length=1 units=ft enabled=true phases=1  r0=0.01 r1=0.01 x0=0.01 x1=0.01 b0=0 b1=0
new line.ocd4307480 bus1=node_oh4307479.3 bus2=node_ocd4307480.3 switch=y length=1 units=ft enabled=true phases=1  r0=0.01 r1=0.01 x0=0.01 x1=0.01 b0=0 b1=0
new line.ocd4307468 bus1=node_oh4307466.3 bus2=node_ocd4307468.3 switch=y length=1 units=ft enabled=true phases=1  r0=0.01 r1=0.01 x0=0.01 x1=0.01 b0=0 b1=0
new line.ocd4303060 bus1=node_oh_3_32_25_3_0001.3 bus2=node_ocd4303060.3 switch=y length=1 units=ft enabled=true phases=1  r0=0.01 r1=0.01 x0=0.01 x1=0.01 b0=0 b1=0
new line.ocd21004623 bus1=node_ug_3_32_15_3_0001.3 bus2=node_ocd21004623.3 switch=y length=1 units=ft enabled=true phases=1  r0=0.01 r1=0.01 x0=0.01 x1=0.01 b0=0 b1=0
new line.ocd21004604 bus1=node_ug_3_32_15_3_0002.3 bus2=node_ocd21004604.3 switch=y length=1 units=ft enabled=true phases=1  r0=0.01 r1=0.01 x0=0.01 x1=0.01 b0=0 b1=0
new line.ocd4300203 bus1=node_oh4301470.3 bus2=node_ocd4300203.3 switch=y length=1 units=ft enabled=true phases=1  r0=0.01 r1=0.01 x0=0.01 x1=0.01 b0=0 b1=0
new line.ocd4303056 bus1=node_oh4303146.3 bus2=node_ocd4303056.3 switch=y length=1 units=ft enabled=true phases=1  r0=0.01 r1=0.01 x0=0.01 x1=0.01 b0=0 b1=0
new line.ocd4307352 bus1=node_oh4307348.3 bus2=node_ocd4307352.3 switch=y length=1 units=ft enabled=true phases=1  r0=0.01 r1=0.01 x0=0.01 x1=0.01 b0=0 b1=0
new line.ocd4307354 bus1=node_ug4307353.3 bus2=node_ocd4307354.3 switch=y length=1 units=ft enabled=true phases=1  r0=0.01 r1=0.01 x0=0.01 x1=0.01 b0=0 b1=0
new line.ocd4300174 bus1=node_oh4301320.2 bus2=node_ocd4300174.2 switch=y length=1 units=ft enabled=true phases=1  r0=0.01 r1=0.01 x0=0.01 x1=0.01 b0=0 b1=0
new line.ocd4303019 bus1=node_oh4301581.2 bus2=node_ocd4303019.2 switch=y length=1 units=ft enabled=true phases=1  r0=0.01 r1=0.01 x0=0.01 x1=0.01 b0=0 b1=0
new line.ocd4300150 bus1=node_oh4301247.3 bus2=node_ocd4300150.3 switch=y length=1 units=ft enabled=true phases=1  r0=0.01 r1=0.01 x0=0.01 x1=0.01 b0=0 b1=0
new line.ocd4300055 bus1=node_oh4301168.3 bus2=node_ocd4300055.3 switch=y length=1 units=ft enabled=true phases=1  r0=0.01 r1=0.01 x0=0.01 x1=0.01 b0=0 b1=0
new line.ocd4302602 bus1=node_oh4301884.1.2.3 bus2=node_ocd4302602.1.2.3 switch=y length=1 units=ft enabled=true phases=3  r0=0.01 r1=0.01 x0=0.01 x1=0.01 b0=0 b1=0
new line.ocd4308022 bus1=node_oh4301915.1.2.3 bus2=node_ocd4308022.1.2.3 switch=y length=1 units=ft enabled=true phases=3  r0=0.01 r1=0.01 x0=0.01 x1=0.01 b0=0 b1=0
new line.ocd4300047 bus1=node_oh4302618.1.2.3 bus2=node_ocd4300047.1.2.3 switch=y length=1 units=ft enabled=true phases=3  r0=0.01 r1=0.01 x0=0.01 x1=0.01 b0=0 b1=0
new line.ocd4303894 bus1=node_oh4302612.3 bus2=node_ocd4303894.3 switch=y length=1 units=ft enabled=true phases=1  r0=0.01 r1=0.01 x0=0.01 x1=0.01 b0=0 b1=0
new line.ocd4303895 bus1=node_oh4301567.2 bus2=node_ocd4303895.2 switch=y length=1 units=ft enabled=true phases=1  r0=0.01 r1=0.01 x0=0.01 x1=0.01 b0=0 b1=0
new line.ocd4302743 bus1=node_oh4302609.1.2.3 bus2=node_ocd4302743.1.2.3 switch=y length=1 units=ft enabled=true phases=3  r0=0.01 r1=0.01 x0=0.01 x1=0.01 b0=0 b1=0
new line.ocd4302623 bus1=node_oh4301928.3 bus2=node_ocd4302623.3 switch=y length=1 units=ft enabled=true phases=1  r0=0.01 r1=0.01 x0=0.01 x1=0.01 b0=0 b1=0
new line.ocd4302603 bus1=node_oh4301890.1.2.3 bus2=node_ocd4302603.1.2.3 switch=y length=1 units=ft enabled=true phases=3  r0=0.01 r1=0.01 x0=0.01 x1=0.01 b0=0 b1=0
new line.16556b-4 bus1=node_oh4301033.3 bus2=node_16556b-4.3 switch=y length=1 units=ft enabled=true phases=1  r0=0.01 r1=0.01 x0=0.01 x1=0.01 b0=0 b1=0
new line.ocd4302594 bus1=node_oh4301104.3 bus2=node_ocd4302594.3 switch=y length=1 units=ft enabled=true phases=1  r0=0.01 r1=0.01 x0=0.01 x1=0.01 b0=0 b1=0
new line.ocd4302595 bus1=node_oh4301111.3 bus2=node_ocd4302595.3 switch=y length=1 units=ft enabled=true phases=1  r0=0.01 r1=0.01 x0=0.01 x1=0.01 b0=0 b1=0
new line.ocd4302596 bus1=node_oh4301123.3 bus2=node_ocd4302596.3 switch=y length=1 units=ft enabled=true phases=1  r0=0.01 r1=0.01 x0=0.01 x1=0.01 b0=0 b1=0
new line.ocd4307828 bus1=node_oh4301151.3 bus2=node_ocd4307828.3 switch=y length=1 units=ft enabled=true phases=1  r0=0.01 r1=0.01 x0=0.01 x1=0.01 b0=0 b1=0
new line.ocd4303004 bus1=node_oh4301505.1 bus2=node_ocd4303004.1 switch=y length=1 units=ft enabled=true phases=1  r0=0.01 r1=0.01 x0=0.01 x1=0.01 b0=0 b1=0
new line.ocd4302997 bus1=node_oh4302376.3 bus2=node_ocd4302997.3 switch=y length=1 units=ft enabled=true phases=1  r0=0.01 r1=0.01 x0=0.01 x1=0.01 b0=0 b1=0
new line.53350-104069-153355 bus1=node_oh3540004.1.2.3 bus2=node_53350-104069-153355.1.2.3 switch=y length=1 units=ft enabled=true phases=3  r0=0.01 r1=0.01 x0=0.01 x1=0.01 b0=0 b1=0
new line.71332 bus1=node_oh3570058.3 bus2=node_71332.3 switch=y length=1 units=ft enabled=true phases=1  r0=0.01 r1=0.01 x0=0.01 x1=0.01 b0=0 b1=0
new line.3570005 bus1=node_oh3570055.2 bus2=node_3570005.2 switch=y length=1 units=ft enabled=true phases=1  r0=0.01 r1=0.01 x0=0.01 x1=0.01 b0=0 b1=0
new line.57205 bus1=node_oh3570008.3 bus2=node_57205.3 switch=y length=1 units=ft enabled=true phases=1  r0=0.01 r1=0.01 x0=0.01 x1=0.01 b0=0 b1=0
new line.3570010 bus1=node_oh3570092.3 bus2=node_3570010.3 switch=y length=1 units=ft enabled=true phases=1  r0=0.01 r1=0.01 x0=0.01 x1=0.01 b0=0 b1=0
new line.3670001 bus1=node_oh3670001.3 bus2=node_3670001.3 switch=y length=1 units=ft enabled=true phases=1  r0=0.01 r1=0.01 x0=0.01 x1=0.01 b0=0 b1=0
new line.3670002 bus1=node_oh3670008.3 bus2=node_3670002.3 switch=y length=1 units=ft enabled=true phases=1  r0=0.01 r1=0.01 x0=0.01 x1=0.01 b0=0 b1=0
new line.3670007 bus1=node_oh3670035.3 bus2=node_3670007.3 switch=y length=1 units=ft enabled=true phases=1  r0=0.01 r1=0.01 x0=0.01 x1=0.01 b0=0 b1=0
new line.3770004 bus1=node_oh3770115.3 bus2=node_3770004.3 switch=y length=1 units=ft enabled=true phases=1  r0=0.01 r1=0.01 x0=0.01 x1=0.01 b0=0 b1=0
new line.3770005 bus1=node_oh3770120.3 bus2=node_3770005.3 switch=y length=1 units=ft enabled=true phases=1  r0=0.01 r1=0.01 x0=0.01 x1=0.01 b0=0 b1=0
new line.3770003 bus1=node_oh3770035.3 bus2=node_3770003.3 switch=y length=1 units=ft enabled=true phases=1  r0=0.01 r1=0.01 x0=0.01 x1=0.01 b0=0 b1=0
new line.3770002 bus1=node_oh3770026.3 bus2=node_3770002.3 switch=y length=1 units=ft enabled=true phases=1  r0=0.01 r1=0.01 x0=0.01 x1=0.01 b0=0 b1=0
new line.3770001 bus1=node_oh3770015.3 bus2=node_3770001.3 switch=y length=1 units=ft enabled=true phases=1  r0=0.01 r1=0.01 x0=0.01 x1=0.01 b0=0 b1=0
new line.3670008 bus1=node_oh3670038.3 bus2=node_3670008.3 switch=y length=1 units=ft enabled=true phases=1  r0=0.01 r1=0.01 x0=0.01 x1=0.01 b0=0 b1=0
new line.3670006 bus1=node_oh3670033.3 bus2=node_3670006.3 switch=y length=1 units=ft enabled=true phases=1  r0=0.01 r1=0.01 x0=0.01 x1=0.01 b0=0 b1=0
new line.3670005 bus1=node_oh3670021.3 bus2=node_3670005.3 switch=y length=1 units=ft enabled=true phases=1  r0=0.01 r1=0.01 x0=0.01 x1=0.01 b0=0 b1=0
new line.3670004 bus1=node_oh3670021.3 bus2=node_3670004.3 switch=y length=1 units=ft enabled=true phases=1  r0=0.01 r1=0.01 x0=0.01 x1=0.01 b0=0 b1=0
new line.3660001 bus1=node_oh3660007.3 bus2=node_3660001.3 switch=y length=1 units=ft enabled=true phases=1  r0=0.01 r1=0.01 x0=0.01 x1=0.01 b0=0 b1=0
new line.3670003 bus1=node_oh3670014.3 bus2=node_3670003.3 switch=y length=1 units=ft enabled=true phases=1  r0=0.01 r1=0.01 x0=0.01 x1=0.01 b0=0 b1=0
new line.3570008 bus1=node_oh3570040.3 bus2=node_3570008.3 switch=y length=1 units=ft enabled=true phases=1  r0=0.01 r1=0.01 x0=0.01 x1=0.01 b0=0 b1=0
new line.3570007 bus1=node_oh3570039.3 bus2=node_3570007.3 switch=y length=1 units=ft enabled=true phases=1  r0=0.01 r1=0.01 x0=0.01 x1=0.01 b0=0 b1=0
new line.3570006 bus1=node_oh3570030.3 bus2=node_3570006.3 switch=y length=1 units=ft enabled=true phases=1  r0=0.01 r1=0.01 x0=0.01 x1=0.01 b0=0 b1=0
new line.3560001 bus1=node_oh3560022.3 bus2=node_3560001.3 switch=y length=1 units=ft enabled=true phases=1  r0=0.01 r1=0.01 x0=0.01 x1=0.01 b0=0 b1=0
new line.3560002 bus1=node_oh3560038.3 bus2=node_3560002.3 switch=y length=1 units=ft enabled=true phases=1  r0=0.01 r1=0.01 x0=0.01 x1=0.01 b0=0 b1=0
new line.3570001 bus1=node_oh3570006.1 bus2=node_3570001.1 switch=y length=1 units=ft enabled=true phases=1  r0=0.01 r1=0.01 x0=0.01 x1=0.01 b0=0 b1=0
new line.3570003 bus1=node_oh3570013.1 bus2=node_3570003.1 switch=y length=1 units=ft enabled=true phases=1  r0=0.01 r1=0.01 x0=0.01 x1=0.01 b0=0 b1=0
new line.3570002 bus1=node_oh3570010.1 bus2=node_3570002.1 switch=y length=1 units=ft enabled=true phases=1  r0=0.01 r1=0.01 x0=0.01 x1=0.01 b0=0 b1=0
new line.3540003 bus1=node_oh3540036.3 bus2=node_3540003.3 switch=y length=1 units=ft enabled=true phases=1  r0=0.01 r1=0.01 x0=0.01 x1=0.01 b0=0 b1=0
new line.3540002 bus1=node_oh3540030.1 bus2=node_3540002.1 switch=y length=1 units=ft enabled=true phases=1  r0=0.01 r1=0.01 x0=0.01 x1=0.01 b0=0 b1=0
new line.3540001 bus1=node_oh3540026.3 bus2=node_3540001.3 switch=y length=1 units=ft enabled=true phases=1  r0=0.01 r1=0.01 x0=0.01 x1=0.01 b0=0 b1=0
new line.3530002 bus1=node_oh3530008.3 bus2=node_3530002.3 switch=y length=1 units=ft enabled=true phases=1  r0=0.01 r1=0.01 x0=0.01 x1=0.01 b0=0 b1=0
new line.3620001 bus1=node_oh3620002.3 bus2=node_3620001.3 switch=y length=1 units=ft enabled=true phases=1  r0=0.01 r1=0.01 x0=0.01 x1=0.01 b0=0 b1=0
new line.3520001 bus1=node_oh3520049.3 bus2=node_3520001.3 switch=y length=1 units=ft enabled=true phases=1  r0=0.01 r1=0.01 x0=0.01 x1=0.01 b0=0 b1=0
new line.3530001 bus1=node_oh3530002.3 bus2=node_3530001.3 switch=y length=1 units=ft enabled=true phases=1  r0=0.01 r1=0.01 x0=0.01 x1=0.01 b0=0 b1=0
new line.fuse_prefix_3_45_14_1_000 bus1=node_ug_3_45_14_1_0001.1.2.3 bus2=node_fuse_prefix_3_45_14_1_000.1.2.3 switch=y length=1 units=ft enabled=true phases=3  r0=0.01 r1=0.01 x0=0.01 x1=0.01 b0=0 b1=0
new line.fuse_prefix_3_45_14_3_000 bus1=node_oh_3_45_14_1_0001.1.2.3 bus2=node_fuse_prefix_3_45_14_3_000.1.2.3 switch=y length=1 units=ft enabled=true phases=3  r0=0.01 r1=0.01 x0=0.01 x1=0.01 b0=0 b1=0
new line.ocd4302562 bus1=node_oh4300213.1 bus2=node_ocd4302562.1 switch=y length=1 units=ft enabled=true phases=1  r0=0.01 r1=0.01 x0=0.01 x1=0.01 b0=0 b1=0
new line.ocd4302564 bus1=node_oh4300236.1 bus2=node_ocd4302564.1 switch=y length=1 units=ft enabled=true phases=1  r0=0.01 r1=0.01 x0=0.01 x1=0.01 b0=0 b1=0
new line.108723-571106722-57108724 bus1=node_oh4300486.1.2.3 bus2=node_108723-571106722-57108724.1.2.3 switch=y length=1 units=ft enabled=true phases=3  r0=0.01 r1=0.01 x0=0.01 x1=0.01 b0=0 b1=0
new line.ocd4302585 bus1=node_oh4300511.3 bus2=node_ocd4302585.3 switch=y length=1 units=ft enabled=true phases=1  r0=0.01 r1=0.01 x0=0.01 x1=0.01 b0=0 b1=0
new line.ocd4302981 bus1=node_oh4303116.2 bus2=node_ocd4302981.2 switch=y length=1 units=ft enabled=true phases=1  r0=0.01 r1=0.01 x0=0.01 x1=0.01 b0=0 b1=0
new line.ocd4303792 bus1=node_oh4303789.3 bus2=node_ocd4303792.3 switch=y length=1 units=ft enabled=true phases=1  r0=0.01 r1=0.01 x0=0.01 x1=0.01 b0=0 b1=0
new line.104058 bus1=node_xfmr4302741.3 bus2=node_104058.3 switch=y length=1 units=ft enabled=true phases=1  r0=0.01 r1=0.01 x0=0.01 x1=0.01 b0=0 b1=0
new line.ocd4303865 bus1=node_oh4303863.3 bus2=node_ocd4303865.3 switch=y length=1 units=ft enabled=true phases=1  r0=0.01 r1=0.01 x0=0.01 x1=0.01 b0=0 b1=0
new line.ocd4303906 bus1=node_oh4303886.3 bus2=node_ocd4303906.3 switch=y length=1 units=ft enabled=true phases=1  r0=0.01 r1=0.01 x0=0.01 x1=0.01 b0=0 b1=0
new line.ocd4303857 bus1=node_oh4303856.3 bus2=node_ocd4303857.3 switch=y length=1 units=ft enabled=true phases=1  r0=0.01 r1=0.01 x0=0.01 x1=0.01 b0=0 b1=0
new line.ocd4302590 bus1=node_oh4300591.3 bus2=node_ocd4302590.3 switch=y length=1 units=ft enabled=true phases=1  r0=0.01 r1=0.01 x0=0.01 x1=0.01 b0=0 b1=0
new line.ocd4301070 bus1=node_oh4300316.1.2.3 bus2=node_ocd4301070.1.2.3 switch=y length=1 units=ft enabled=true phases=3  r0=0.01 r1=0.01 x0=0.01 x1=0.01 b0=0 b1=0
new line.ocd4307998 bus1=node_oh4300319.1.2.3 bus2=node_ocd4307998.1.2.3 switch=y length=1 units=ft enabled=true phases=3  r0=0.01 r1=0.01 x0=0.01 x1=0.01 b0=0 b1=0
new line.ocd4302569 bus1=node_oh4300294.1.2.3 bus2=node_ocd4302569.1.2.3 switch=y length=1 units=ft enabled=true phases=3  r0=0.01 r1=0.01 x0=0.01 x1=0.01 b0=0 b1=0
new line.ocd21000101 bus1=node_ug21000108.1.2.3 bus2=node_ocd21000101.1.2.3 switch=y length=1 units=ft enabled=true phases=3  r0=0.01 r1=0.01 x0=0.01 x1=0.01 b0=0 b1=0
new line.ocd21000109 bus1=node_ug21000110.1.2.3 bus2=node_ocd21000109.1.2.3 switch=y length=1 units=ft enabled=true phases=3  r0=0.01 r1=0.01 x0=0.01 x1=0.01 b0=0 b1=0
new line.ocd21000111 bus1=node_ug21000112.1.2.3 bus2=node_ocd21000111.1.2.3 switch=y length=1 units=ft enabled=true phases=3  r0=0.01 r1=0.01 x0=0.01 x1=0.01 b0=0 b1=0
new line.ocd21000071 bus1=node_ug21000113.1.2.3 bus2=node_ocd21000071.1.2.3 switch=y length=1 units=ft enabled=true phases=3  r0=0.01 r1=0.01 x0=0.01 x1=0.01 b0=0 b1=0
new line.164050a1-1840504a4-10474 bus1=node_t_3_34_60_4_0001.1.2.3 bus2=node_164050a1-1840504a4-10474.1.2.3 switch=y length=1 units=ft enabled=true phases=3  r0=0.01 r1=0.01 x0=0.01 x1=0.01 b0=0 b1=0
new line.ocd4303063 bus1=node_oh4302805.3 bus2=node_ocd4303063.3 switch=y length=1 units=ft enabled=true phases=1  r0=0.01 r1=0.01 x0=0.01 x1=0.01 b0=0 b1=0
new line.ocd4300666 bus1=node_oh4300643.3 bus2=node_ocd4300666.3 switch=y length=1 units=ft enabled=true phases=1  r0=0.01 r1=0.01 x0=0.01 x1=0.01 b0=0 b1=0
new line.67383 bus1=node_oh3410008.3 bus2=node_67383.3 switch=y length=1 units=ft enabled=true phases=1  r0=0.01 r1=0.01 x0=0.01 x1=0.01 b0=0 b1=0
new line.cp57119947 bus1=node_oh3110016.3 bus2=node_cp57119947.3 switch=y length=1 units=ft enabled=true phases=1  r0=0.01 r1=0.01 x0=0.01 x1=0.01 b0=0 b1=0
new line.07537a-4 bus1=node_oh310003.3 bus2=node_07537a-4.3 switch=y length=1 units=ft enabled=true phases=1  r0=0.01 r1=0.01 x0=0.01 x1=0.01 b0=0 b1=0
new line.104714 bus1=node_oh3210022.3 bus2=node_104714.3 switch=y length=1 units=ft enabled=true phases=1  r0=0.01 r1=0.01 x0=0.01 x1=0.01 b0=0 b1=0
new line.3320001 bus1=node_oh3320054.3 bus2=node_3320001.3 switch=y length=1 units=ft enabled=true phases=1  r0=0.01 r1=0.01 x0=0.01 x1=0.01 b0=0 b1=0
new line.3310001 bus1=node_oh3310043.3 bus2=node_3310001.3 switch=y length=1 units=ft enabled=true phases=1  r0=0.01 r1=0.01 x0=0.01 x1=0.01 b0=0 b1=0
new line.3320002 bus1=node_oh3320016.3 bus2=node_3320002.3 switch=y length=1 units=ft enabled=true phases=1  r0=0.01 r1=0.01 x0=0.01 x1=0.01 b0=0 b1=0
new line.069868-2 bus1=node_oh4300769.1 bus2=node_069868-2.1 switch=y length=1 units=ft enabled=true phases=1  r0=0.01 r1=0.01 x0=0.01 x1=0.01 b0=0 b1=0
new line.ocd4300272 bus1=node_oh4300833.1 bus2=node_ocd4300272.1 switch=y length=1 units=ft enabled=true phases=1  r0=0.01 r1=0.01 x0=0.01 x1=0.01 b0=0 b1=0
new line.fuse_prefix_3_4_92_4_0001 bus1=node_oh4300848.1 bus2=node_fuse_prefix_3_4_92_4_0001.1 switch=y length=1 units=ft enabled=true phases=1  r0=0.01 r1=0.01 x0=0.01 x1=0.01 b0=0 b1=0
new line.cp571119960 bus1=node_oh4300854.1 bus2=node_cp571119960.1 switch=y length=1 units=ft enabled=true phases=1  r0=0.01 r1=0.01 x0=0.01 x1=0.01 b0=0 b1=0
new line.ocd4308020 bus1=node_oh4303076.1 bus2=node_ocd4308020.1 switch=y length=1 units=ft enabled=true phases=1  r0=0.01 r1=0.01 x0=0.01 x1=0.01 b0=0 b1=0
new line.ocd4300661 bus1=node_oh4300985.1 bus2=node_ocd4300661.1 switch=y length=1 units=ft enabled=true phases=1  r0=0.01 r1=0.01 x0=0.01 x1=0.01 b0=0 b1=0
new line.ocd4300659 bus1=node_oh4300938.1 bus2=node_ocd4300659.1 switch=y length=1 units=ft enabled=true phases=1  r0=0.01 r1=0.01 x0=0.01 x1=0.01 b0=0 b1=0
new line.ocd4302745 bus1=node_oh4302807.1 bus2=node_ocd4302745.1 switch=y length=1 units=ft enabled=true phases=1  r0=0.01 r1=0.01 x0=0.01 x1=0.01 b0=0 b1=0
