files/ojo_caliente_consultants/Loads.dss
new load.350199708 bus1=node_oh4301275.1 conn=y phases=1 kv=7.2 kw=0.945278823375702 kvar=0.0608032494783401 
new load.27967 bus1=node_oh4307466.3 conn=y phases=1 kv=7.2 kw=0.0 kvar=0.0 
new load.250008301 bus1=node_oh4307466.3 conn=y phases=1 kv=7.2 kw=0.0748735666275024 kvar=0.00481609860435128 
new load.315390018 bus1=node_oh4307466.3 conn=y phases=1 kv=7.2 kw=0.21526150405407 kvar=0.0138462837785482 
new load.350213107 bus1=node_oh4307466.3 conn=y phases=1 kv=7.2 kw=1.17613935470581 kvar=0.0756529122591019 
new load.27961 bus1=node_oh_3_32_25_3_0001.3 conn=y phases=1 kv=7.2 kw=1.39763963222504 kvar=0.0899004861712456 
new load.330132140 bus1=node_oh4301470.3 conn=y phases=1 kv=7.2 kw=0.290135085582733 kvar=0.0186623837798834 
new load.150014703 bus1=node_oh4301470.3 conn=y phases=1 kv=7.2 kw=0.315092980861664 kvar=0.0202677510678768 
new load.350198604 bus1=node_oh4301470.3 conn=y phases=1 kv=7.2 kw=1.41635799407959 kvar=0.0911045148968697 
new load.350311538 bus1=node_oh4301470.3 conn=y phases=1 kv=7.2 kw=1.06070840358734 kvar=0.0682280361652374 
new load.350291809 bus1=node_oh4307348.3 conn=y phases=1 kv=7.2 kw=0.836088299751282 kvar=0.0537797771394253 
new load.350207808 bus1=node_oh4307348.3 conn=y phases=1 kv=7.2 kw=0.50227689743042 kvar=0.0323079973459244 
new load.28039 bus1=node_oh4307348.3 conn=y phases=1 kv=7.2 kw=0.0 kvar=0.0 
new load.350282001 bus1=node_oh4307348.3 conn=y phases=1 kv=7.2 kw=0.396205991506577 kvar=0.0254851914942265 
new load.28335 bus1=node_ug4307353.3 conn=y phases=1 kv=7.2 kw=0.0 kvar=0.0 
new load.350214901 bus1=node_oh4301581.2 conn=y phases=1 kv=7.2 kw=0.857926309108734 kvar=0.0551844649016857 
new load.352067604 bus1=node_oh4302612.3 conn=y phases=1 kv=7.2 kw=0.149747133255005 kvar=0.00963219720870256 
new load.152000602 bus1=node_oh4302612.3 conn=y phases=1 kv=7.2 kw=0.0 kvar=0.0 
new load.350312342 bus1=node_oh4302612.3 conn=y phases=1 kv=7.2 kw=1.67841553688049 kvar=0.107960857450962 
new load.150021408 bus1=node_oh4301033.3 conn=y phases=1 kv=7.2 kw=0.0 kvar=0.0 
new load.350274009 bus1=node_oh4301033.3 conn=y phases=1 kv=7.2 kw=3.00742149353027 kvar=0.19344662129879 
new load.350311511 bus1=node_oh4301123.3 conn=y phases=1 kv=7.2 kw=0.851686835289001 kvar=0.0547831244766712 
new load.350311627 bus1=node_oh4301151.3 conn=y phases=1 kv=7.2 kw=0.889123618602753 kvar=0.0571911707520485 
new load.5068 bus1=node_oh4302376.3 conn=y phases=1 kv=7.2 kw=0.0 kvar=0.0 
new load.350311758 bus1=node_oh4302376.3 conn=y phases=1 kv=7.2 kw=0.0 kvar=0.0 
new load.417256604 bus1=node_oh3770115.3 conn=y phases=1 kv=7.2 kw=0.0 kvar=0.0 
new load.419042709 bus1=node_oh3770035.3 conn=y phases=1 kv=7.2 kw=1.16678011417389 kvar=0.0750508904457092 
new load.117217801 bus1=node_oh3770035.3 conn=y phases=1 kv=7.2 kw=2.04654455184937 kvar=0.131640046834946 
new load.419147208 bus1=node_oh3770035.3 conn=y phases=1 kv=7.2 kw=0.202782601118088 kvar=0.0130436019971967 
new load.419146001 bus1=node_oh3770035.3 conn=y phases=1 kv=7.2 kw=0.673862099647522 kvar=0.0433448888361454 
new load.418963908 bus1=node_oh3770026.3 conn=y phases=1 kv=7.2 kw=22.4620704650879 kvar=1.44482958316803 
new load.418215103 bus1=node_oh3770015.3 conn=y phases=1 kv=7.2 kw=1.31652724742889 kvar=0.0846830904483795 
new load.418210705 bus1=node_oh3770015.3 conn=y phases=1 kv=7.2 kw=0.233979895710945 kvar=0.0150503078475595 
new load.418700605 bus1=node_oh3770015.3 conn=y phases=1 kv=7.2 kw=1.66905629634857 kvar=0.10735884308815 
new load.419152309 bus1=node_oh3770015.3 conn=y phases=1 kv=7.2 kw=0.586509644985199 kvar=0.0377261079847813 
new load.419152382 bus1=node_oh3770015.3 conn=y phases=1 kv=7.2 kw=1.4413161277771 kvar=0.0927098989486694 
new load.350151101 bus1=node_oh3660007.3 conn=y phases=1 kv=7.2 kw=1.07318818569183 kvar=0.0690307691693306 
new load.419145618 bus1=node_oh3670014.3 conn=y phases=1 kv=7.2 kw=1.40387940406799 kvar=0.0903018489480019 
new load.5046 bus1=node_oh3570039.3 conn=y phases=1 kv=7.2 kw=0.970237016677856 kvar=0.0624086372554302 
new load.419147818 bus1=node_oh3570039.3 conn=y phases=1 kv=7.2 kw=1.03575146198273 kvar=0.0666227266192436 
new load.5056 bus1=node_oh3560038.3 conn=y phases=1 kv=7.2 kw=0.0 kvar=0.0 
new load.350167601 bus1=node_oh3560038.3 conn=y phases=1 kv=7.2 kw=0.249578580260277 kvar=0.0160536635667086 
new load.350305109 bus1=node_oh3560038.3 conn=y phases=1 kv=7.2 kw=0.368128418922424 kvar=0.0236791539937258 
new load.317220009 bus1=node_oh4300213.1 conn=y phases=1 kv=7.2 kw=0.355649441480637 kvar=0.0228764675557613 
new load.117230107 bus1=node_oh4300213.1 conn=y phases=1 kv=7.2 kw=1.50683057308197 kvar=0.0969239845871925 
new load.217157105 bus1=node_oh4300213.1 conn=y phases=1 kv=7.2 kw=2.52074313163757 kvar=0.162141963839531 
new load.350224400 bus1=node_oh4300213.1 conn=y phases=1 kv=7.2 kw=0.046795979142189 kvar=0.00301006156951189 
new load.350312320 bus1=node_oh4300213.1 conn=y phases=1 kv=7.2 kw=1.25413227081299 kvar=0.0806696563959122 
...